Assuming unrestricted shared filesystem usage.
host: UU120516
Building DAG of jobs...
Provided cores: 10
Rules claiming more threads will be scaled down.
Job stats:
job         count
--------  -------
Mdl_Prep        1
add_OBS         1
all             1
log_Init        1
total           4

Select jobs to execute...
Execute 1 jobs...

[Fri May  9 15:05:54 2025]
localrule log_Init:
    input: C:/OD/WS_Mdl/code/WS_Mdl/WS_Mdl.py
    output: C:/OD/WS_Mdl/models/NBr/code/snakemake/temp/Log_init_done_NBr11
    jobid: 3
    reason: Missing output files: C:/OD/WS_Mdl/models/NBr/code/snakemake/temp/Log_init_done_NBr11
    resources: tmpdir=C:\Users\Karam014\AppData\Local\Temp
Shell command: None
[Fri May  9 15:05:55 2025]
Finished jobid: 3 (Rule: log_Init)
1 of 4 steps (25%) done
Select jobs to execute...
Execute 1 jobs...

[Fri May  9 15:05:55 2025]
localrule Mdl_Prep:
    input: C:/OD/WS_Mdl/models/NBr/code/snakemake/temp/Log_init_done_NBr11, code/Mdl_Prep/Mdl_Prep_NBr11.bat, code/Mdl_Prep/Mdl_Prep_NBr11.ini, In/PRJ/NBr11.prj
    output: C:/OD/WS_Mdl/models/NBr/Sim/NBr11/RUN.BAT
    jobid: 2
    reason: Missing output files: C:/OD/WS_Mdl/models/NBr/Sim/NBr11/RUN.BAT; Input files updated by another job: C:/OD/WS_Mdl/models/NBr/code/snakemake/temp/Log_init_done_NBr11
    resources: tmpdir=C:\Users\Karam014\AppData\Local\Temp
Shell command: call code/Mdl_Prep/Mdl_Prep_NBr11.bat

 ==================================================
 Running iMOD: 
  exe: C:\OD\WS_Mdl\software\iMOD5\iMOD_V5_6_1.exe
  dir: C:\OD\WS_Mdl\models\NBr\code\Mdl_Prep
 ==================================================


EXECUTING FUNCTION >>> RUNFILE <<<


iMODBATCH using tmp-folder:
  C:\OD\WS_Mdl\models\NBr\code\Mdl_Prep\IMOD_TMP\BATCH1

PRJFILE_IN=..\..\In\PRJ\NBr11.prj

Export to MODFLOW6 files

NAMFILE_OUT=..\..\Sim\NBr11\NBr11.nam
WINDOW=     113125.000     395925.000     123225.000     396025.000
CELLSIZE=         25.000
ISS=         1
SDATE=20100101000000
EDATE=20100103000000
ITT=             3
IDT=             1
Time step:     1 days
NSTEP=         1
ISTEADY=         0
SSYSTEM=         0
SAVESHD=-1
SAVEDRN=-1
SAVERIV=-1
SAVEWEL=-1
SAVEFLX=-1
PCKACTIVE=0
COUPLER=..\..\..\..\software\iMOD5\bin\iMOD_coupler
ISOLVE=         0

iMOD found model with 37 layers

Reading BND-files (2.70%)      Reading BND-files (5.41%)      Reading BND-files (8.11%)      Reading BND-files (10.81%)      Reading BND-files (13.51%)      Reading BND-files (16.22%)      Reading BND-files (18.92%)      Reading BND-files (21.62%)      Reading BND-files (24.32%)      Reading BND-files (27.03%)      Reading BND-files (29.73%)      Reading BND-files (32.43%)      Reading BND-files (35.14%)      Reading BND-files (37.84%)      Reading BND-files (40.54%)      Reading BND-files (43.24%)      Reading BND-files (45.95%)      Reading BND-files (48.65%)      Reading BND-files (51.35%)      Reading BND-files (54.05%)      Reading BND-files (56.76%)      Reading BND-files (59.46%)      Reading BND-files (62.16%)      Reading BND-files (64.86%)      Reading BND-files (67.57%)      Reading BND-files (70.27%)      Reading BND-files (72.97%)      Reading BND-files (75.68%)      Reading BND-files (78.38%)      Reading BND-files (81.08%)      Reading BND-files (83.78%)      Reading BND-files (86.49%)      Reading BND-files (89.19%)      Reading BND-files (91.89%)      Reading BND-files (94.59%)      Reading BND-files (97.30%)      Reading BND-files (100.00%)      
Modified boundary layer 1 due to submodelling N/S/W/E: 402/402/4/4
Modified boundary layer 2 due to submodelling N/S/W/E: 402/402/4/4
Modified boundary layer 3 due to submodelling N/S/W/E: 402/402/4/4
Modified boundary layer 4 due to submodelling N/S/W/E: 402/402/4/4
Modified boundary layer 5 due to submodelling N/S/W/E: 402/402/4/4
Modified boundary layer 6 due to submodelling N/S/W/E: 402/402/4/4
Modified boundary layer 7 due to submodelling N/S/W/E: 402/402/4/4
Modified boundary layer 8 due to submodelling N/S/W/E: 402/402/4/4
Modified boundary layer 9 due to submodelling N/S/W/E: 402/402/4/4
Modified boundary layer 10 due to submodelling N/S/W/E: 402/402/4/4
Modified boundary layer 11 due to submodelling N/S/W/E: 402/402/4/4
Modified boundary layer 12 due to submodelling N/S/W/E: 402/402/4/4
Modified boundary layer 13 due to submodelling N/S/W/E: 402/402/4/4
Modified boundary layer 14 due to submodelling N/S/W/E: 402/402/4/4
Modified boundary layer 15 due to submodelling N/S/W/E: 402/402/4/4
Modified boundary layer 16 due to submodelling N/S/W/E: 402/402/4/4
Modified boundary layer 17 due to submodelling N/S/W/E: 402/402/4/4
Modified boundary layer 18 due to submodelling N/S/W/E: 402/402/4/4
Modified boundary layer 19 due to submodelling N/S/W/E: 402/402/4/4
Modified boundary layer 20 due to submodelling N/S/W/E: 402/402/4/4
Modified boundary layer 21 due to submodelling N/S/W/E: 402/402/4/4
Modified boundary layer 22 due to submodelling N/S/W/E: 402/402/4/4
Modified boundary layer 23 due to submodelling N/S/W/E: 402/402/4/4
Modified boundary layer 24 due to submodelling N/S/W/E: 402/402/4/4
Modified boundary layer 25 due to submodelling N/S/W/E: 402/402/4/4
Modified boundary layer 26 due to submodelling N/S/W/E: 402/402/4/4
Modified boundary layer 27 due to submodelling N/S/W/E: 402/402/4/4
Modified boundary layer 28 due to submodelling N/S/W/E: 402/402/4/4
Modified boundary layer 29 due to submodelling N/S/W/E: 402/402/4/4
Modified boundary layer 30 due to submodelling N/S/W/E: 402/402/4/4
Modified boundary layer 31 due to submodelling N/S/W/E: 402/402/4/4
Modified boundary layer 32 due to submodelling N/S/W/E: 402/402/4/4
Modified boundary layer 33 due to submodelling N/S/W/E: 402/402/4/4
Modified boundary layer 34 due to submodelling N/S/W/E: 402/402/4/4
Modified boundary layer 35 due to submodelling N/S/W/E: 402/402/4/4
Modified boundary layer 36 due to submodelling N/S/W/E: 402/402/4/4
Modified boundary layer 37 due to submodelling N/S/W/E: 402/402/4/4
Reading SHD-files (2.70%)      Reading SHD-files (5.41%)      Reading SHD-files (8.11%)      Reading SHD-files (10.81%)      Reading SHD-files (13.51%)      Reading SHD-files (16.22%)      Reading SHD-files (18.92%)      Reading SHD-files (21.62%)      Reading SHD-files (24.32%)      Reading SHD-files (27.03%)      Reading SHD-files (29.73%)      Reading SHD-files (32.43%)      Reading SHD-files (35.14%)      Reading SHD-files (37.84%)      Reading SHD-files (40.54%)      Reading SHD-files (43.24%)      Reading SHD-files (45.95%)      Reading SHD-files (48.65%)      Reading SHD-files (51.35%)      Reading SHD-files (54.05%)      Reading SHD-files (56.76%)      Reading SHD-files (59.46%)      Reading SHD-files (62.16%)      Reading SHD-files (64.86%)      Reading SHD-files (67.57%)      Reading SHD-files (70.27%)      Reading SHD-files (72.97%)      Reading SHD-files (75.68%)      Reading SHD-files (78.38%)      Reading SHD-files (81.08%)      Reading SHD-files (83.78%)      Reading SHD-files (86.49%)      Reading SHD-files (89.19%)      Reading SHD-files (91.89%)      Reading SHD-files (94.59%)      Reading SHD-files (97.30%)      Reading SHD-files (100.00%)      Reading TOP/BOT-files (2.70%)      Reading TOP/BOT-files (5.41%)      Reading TOP/BOT-files (8.11%)      Reading TOP/BOT-files (10.81%)      Reading TOP/BOT-files (13.51%)      Reading TOP/BOT-files (16.22%)      Reading TOP/BOT-files (18.92%)      Reading TOP/BOT-files (21.62%)      Reading TOP/BOT-files (24.32%)      Reading TOP/BOT-files (27.03%)      Reading TOP/BOT-files (29.73%)      Reading TOP/BOT-files (32.43%)      Reading TOP/BOT-files (35.14%)      Reading TOP/BOT-files (37.84%)      Reading TOP/BOT-files (40.54%)      Reading TOP/BOT-files (43.24%)      Reading TOP/BOT-files (45.95%)      Reading TOP/BOT-files (48.65%)      Reading TOP/BOT-files (51.35%)      Reading TOP/BOT-files (54.05%)      Reading TOP/BOT-files (56.76%)      Reading TOP/BOT-files (59.46%)      Reading TOP/BOT-files (62.16%)      Reading TOP/BOT-files (64.86%)      Reading TOP/BOT-files (67.57%)      Reading TOP/BOT-files (70.27%)      Reading TOP/BOT-files (72.97%)      Reading TOP/BOT-files (75.68%)      Reading TOP/BOT-files (78.38%)      Reading TOP/BOT-files (81.08%)      Reading TOP/BOT-files (83.78%)      Reading TOP/BOT-files (86.49%)      Reading TOP/BOT-files (89.19%)      Reading TOP/BOT-files (91.89%)      Reading TOP/BOT-files (94.59%)      Reading TOP/BOT-files (97.30%)      Reading TOP/BOT-files (100.00%)      Reading LPF-files Permeability components (2.70%)      Reading LPF-files Permeability components (5.41%)      Reading LPF-files Permeability components (8.11%)      Reading LPF-files Permeability components (10.81%)      Reading LPF-files Permeability components (13.51%)      Reading LPF-files Permeability components (16.22%)      Reading LPF-files Permeability components (18.92%)      Reading LPF-files Permeability components (21.62%)      Reading LPF-files Permeability components (24.32%)      Reading LPF-files Permeability components (27.03%)      Reading LPF-files Permeability components (29.73%)      Reading LPF-files Permeability components (32.43%)      Reading LPF-files Permeability components (35.14%)      Reading LPF-files Permeability components (37.84%)      Reading LPF-files Permeability components (40.54%)      Reading LPF-files Permeability components (43.24%)      Reading LPF-files Permeability components (45.95%)      Reading LPF-files Permeability components (48.65%)      Reading LPF-files Permeability components (51.35%)      Reading LPF-files Permeability components (54.05%)      Reading LPF-files Permeability components (56.76%)      Reading LPF-files Permeability components (59.46%)      Reading LPF-files Permeability components (62.16%)      Reading LPF-files Permeability components (64.86%)      Reading LPF-files Permeability components (67.57%)      Reading LPF-files Permeability components (70.27%)      Reading LPF-files Permeability components (72.97%)      Reading LPF-files Permeability components (75.68%)      Reading LPF-files Permeability components (78.38%)      Reading LPF-files Permeability components (81.08%)      Reading LPF-files Permeability components (83.78%)      Reading LPF-files Permeability components (86.49%)      Reading LPF-files Permeability components (89.19%)      Reading LPF-files Permeability components (91.89%)      Reading LPF-files Permeability components (94.59%)      Reading LPF-files Permeability components (97.30%)      Reading LPF-files Permeability components (100.00%)      Reading LPF-files Storage components (2.70%)      Reading LPF-files Storage components (5.41%)      Reading LPF-files Storage components (8.11%)      Reading LPF-files Storage components (10.81%)      Reading LPF-files Storage components (13.51%)      Reading LPF-files Storage components (16.22%)      Reading LPF-files Storage components (18.92%)      Reading LPF-files Storage components (21.62%)      Reading LPF-files Storage components (24.32%)      Reading LPF-files Storage components (27.03%)      Reading LPF-files Storage components (29.73%)      Reading LPF-files Storage components (32.43%)      Reading LPF-files Storage components (35.14%)      Reading LPF-files Storage components (37.84%)      Reading LPF-files Storage components (40.54%)      Reading LPF-files Storage components (43.24%)      Reading LPF-files Storage components (45.95%)      Reading LPF-files Storage components (48.65%)      Reading LPF-files Storage components (51.35%)      Reading LPF-files Storage components (54.05%)      Reading LPF-files Storage components (56.76%)      Reading LPF-files Storage components (59.46%)      Reading LPF-files Storage components (62.16%)      Reading LPF-files Storage components (64.86%)      Reading LPF-files Storage components (67.57%)      Reading LPF-files Storage components (70.27%)      Reading LPF-files Storage components (72.97%)      Reading LPF-files Storage components (75.68%)      Reading LPF-files Storage components (78.38%)      Reading LPF-files Storage components (81.08%)      Reading LPF-files Storage components (83.78%)      Reading LPF-files Storage components (86.49%)      Reading LPF-files Storage components (89.19%)      Reading LPF-files Storage components (91.89%)      Reading LPF-files Storage components (94.59%)      Reading LPF-files Storage components (97.30%)      Reading LPF-files Storage components (100.00%)      

 Writing ..\..\SIM\NBR11\GWF_1\MODELINPUT\NBR11.IC6...

 Writing ..\..\SIM\NBR11\GWF_1\MODELINPUT\NBR11.DIS6...

 Writing ..\..\SIM\NBR11\GWF_1\MODELINPUT\NBR11.NPF6...

 Writing ..\..\SIM\NBR11\GWF_1\MODELINPUT\NBR11.STO6...

 Writing ..\..\SIM\NBR11\GWF_1\MODELINPUT\NBR11.HFB6...

 Writing ..\..\SIM\NBR11\GWF_1\MODELINPUT\NBR11.WEL6...
     STARTTIME        PCKTIME        ENDTIME          ENTRY
20100101000000 20100101000000 20100102000000              2
Exporting timestep      1     2     2 20100101000000 20100102000000Exporting timestep      2     2     2 20100102000000 20100103000000

 Writing ..\..\SIM\NBR11\GWF_1\MODELINPUT\NBR11.WEL6...
     STARTTIME        PCKTIME        ENDTIME          ENTRY
20100101000000 20100101000000 20100102000000              2
Exporting timestep      1     2     2 20100101000000 20100102000000Exporting timestep      2     2     2 20100102000000 20100103000000

 Writing ..\..\SIM\NBR11\GWF_1\MODELINPUT\NBR11.WEL6...
     STARTTIME        PCKTIME        ENDTIME          ENTRY
20100101000000 20100101000000 20100102000000              2
Exporting timestep      1     2     2 20100101000000 20100102000000Exporting timestep      2     2     2 20100102000000 20100103000000

 Writing ..\..\SIM\NBR11\GWF_1\MODELINPUT\NBR11.DRN6...
     STARTTIME        PCKTIME        ENDTIME          ENTRY
20100101000000 20100101000000 20100102000000              2
Exporting timestep      1     2     2 20100101000000 20100102000000Exporting timestep      2     2    -2 20100102000000 20100103000000

 Writing ..\..\SIM\NBR11\GWF_1\MODELINPUT\NBR11.DRN6...
     STARTTIME        PCKTIME        ENDTIME          ENTRY
20100101000000 20100101000000 20100102000000              2
Exporting timestep      1     2     2 20100101000000 20100102000000Exporting timestep      2     2    -2 20100102000000 20100103000000

 Writing ..\..\SIM\NBR11\GWF_1\MODELINPUT\NBR11.DRN6...
     STARTTIME        PCKTIME        ENDTIME          ENTRY
20100101000000 20100101000000 20100102000000              2
Exporting timestep      1     2     2 20100101000000 20100102000000Exporting timestep      2     2    -2 20100102000000 20100103000000

 Writing ..\..\SIM\NBR11\GWF_1\MODELINPUT\NBR11.RIV6...
     STARTTIME        PCKTIME        ENDTIME          ENTRY
20100101000000 19901001000000 20100102000000              2
Exporting timestep      1     2     2 20100101000000 20100102000000Exporting timestep      2     2    -2 20100102000000 20100103000000

 Writing ..\..\SIM\NBR11\GWF_1\MODELINPUT\NBR11.RIV6...
     STARTTIME        PCKTIME        ENDTIME          ENTRY
20100101000000 19901001000000 20100102000000              2
Exporting timestep      1     2     2 20100101000000 20100102000000Exporting timestep      2     2    -2 20100102000000 20100103000000

 Writing ..\..\SIM\NBR11\GWF_1\MODELINPUT\NBR11.RIV6...
     STARTTIME        PCKTIME        ENDTIME          ENTRY
20100101000000 19901001000000 20100102000000              2
Exporting timestep      1     2     2 20100101000000 20100102000000Exporting timestep      2     2    -2 20100102000000 20100103000000

 Writing ..\..\SIM\NBR11\GWF_1\MODELINPUT\NBR11.RIV6...
     STARTTIME        PCKTIME        ENDTIME          ENTRY
20100101000000 19901001000000 20100102000000              2
Exporting timestep      1     2     2 20100101000000 20100102000000Exporting timestep      2     2    -2 20100102000000 20100103000000

 Writing ..\..\SIM\NBR11\GWF_1\MODELINPUT\NBR11.RIV6...
     STARTTIME        PCKTIME        ENDTIME          ENTRY
20100101000000 19901001000000 20100102000000              2
Exporting timestep      1     2     2 20100101000000 20100102000000Exporting timestep      2     2    -2 20100102000000 20100103000000

 Writing ..\..\SIM\NBR11\GWF_1\MODELINPUT\NBR11.CHD6...
Exporting timestep      1     2     0 20100101000000 20100102000000
     STARTTIME        PCKTIME        ENDTIME          ENTRY
20100102000000 20100102000000 20100103000000              1
Exporting timestep      2     2     1 20100102000000 20100103000000

 Writing ..\..\SIM\NBR11\GWF_1\MODELINPUT\NBR11.CHD6...
Exporting timestep      1     2     0 20100101000000 20100102000000
     STARTTIME        PCKTIME        ENDTIME          ENTRY
20100102000000 20100102000000 20100103000000              1
Exporting timestep      2     2     1 20100102000000 20100103000000

 Writing ..\..\SIM\NBR11\GWF_1\MODELINPUT\NBR11.CHD6...
Exporting timestep      1     2     0 20100101000000 20100102000000
     STARTTIME        PCKTIME        ENDTIME          ENTRY
20100102000000 20100102000000 20100103000000              1
Exporting timestep      2     2     1 20100102000000 20100103000000

 Writing ..\..\SIM\NBR11\GWF_1\MODELINPUT\NBR11.CHD6...
Exporting timestep      1     2     0 20100101000000 20100102000000
     STARTTIME        PCKTIME        ENDTIME          ENTRY
20100102000000 20100102000000 20100103000000              1
Exporting timestep      2     2     1 20100102000000 20100103000000

 Writing ..\..\SIM\NBR11\GWF_1\MODELINPUT\NBR11.CHD6...
Exporting timestep      1     2     0 20100101000000 20100102000000
     STARTTIME        PCKTIME        ENDTIME          ENTRY
20100102000000 20100102000000 20100103000000              1
Exporting timestep      2     2     1 20100102000000 20100103000000

 Writing ..\..\SIM\NBR11\GWF_1\MODELINPUT\NBR11.CHD6...
Exporting timestep      1     2     0 20100101000000 20100102000000
     STARTTIME        PCKTIME        ENDTIME          ENTRY
20100102000000 20100102000000 20100103000000              1
Exporting timestep      2     2     1 20100102000000 20100103000000

 Writing ..\..\SIM\NBR11\GWF_1\MODELINPUT\NBR11.CHD6...
Exporting timestep      1     2     0 20100101000000 20100102000000
     STARTTIME        PCKTIME        ENDTIME          ENTRY
20100102000000 20100102000000 20100103000000              1
Exporting timestep      2     2     1 20100102000000 20100103000000

 Writing ..\..\SIM\NBR11\GWF_1\MODELINPUT\NBR11.CHD6...
Exporting timestep      1     2     0 20100101000000 20100102000000
     STARTTIME        PCKTIME        ENDTIME          ENTRY
20100102000000 20100102000000 20100103000000              1
Exporting timestep      2     2     1 20100102000000 20100103000000

 Writing ..\..\SIM\NBR11\GWF_1\MODELINPUT\NBR11.CHD6...
Exporting timestep      1     2     0 20100101000000 20100102000000
     STARTTIME        PCKTIME        ENDTIME          ENTRY
20100102000000 20100102000000 20100103000000              1
Exporting timestep      2     2     1 20100102000000 20100103000000

 Writing ..\..\SIM\NBR11\GWF_1\MODELINPUT\NBR11.CHD6...
Exporting timestep      1     2     0 20100101000000 20100102000000
     STARTTIME        PCKTIME        ENDTIME          ENTRY
20100102000000 20100102000000 20100103000000              1
Exporting timestep      2     2     1 20100102000000 20100103000000

 Writing ..\..\SIM\NBR11\GWF_1\MODELINPUT\NBR11.CHD6...
Exporting timestep      1     2     0 20100101000000 20100102000000
     STARTTIME        PCKTIME        ENDTIME          ENTRY
20100102000000 20100102000000 20100103000000              1
Exporting timestep      2     2     1 20100102000000 20100103000000

 Writing ..\..\SIM\NBR11\GWF_1\MODELINPUT\NBR11.CHD6...
Exporting timestep      1     2     0 20100101000000 20100102000000
     STARTTIME        PCKTIME        ENDTIME          ENTRY
20100102000000 20100102000000 20100103000000              1
Exporting timestep      2     2     1 20100102000000 20100103000000

 Writing ..\..\SIM\NBR11\GWF_1\MODELINPUT\NBR11.CHD6...
Exporting timestep      1     2     0 20100101000000 20100102000000
     STARTTIME        PCKTIME        ENDTIME          ENTRY
20100102000000 20100102000000 20100103000000              1
Exporting timestep      2     2     1 20100102000000 20100103000000

 Writing ..\..\SIM\NBR11\GWF_1\MODELINPUT\NBR11.CHD6...
Exporting timestep      1     2     0 20100101000000 20100102000000
     STARTTIME        PCKTIME        ENDTIME          ENTRY
20100102000000 20100102000000 20100103000000              1
Exporting timestep      2     2     1 20100102000000 20100103000000

 Writing ..\..\SIM\NBR11\GWF_1\MODELINPUT\NBR11.CHD6...
Exporting timestep      1     2     0 20100101000000 20100102000000
     STARTTIME        PCKTIME        ENDTIME          ENTRY
20100102000000 20100102000000 20100103000000              1
Exporting timestep      2     2     1 20100102000000 20100103000000

 Writing ..\..\SIM\NBR11\GWF_1\MODELINPUT\NBR11.CHD6...
Exporting timestep      1     2     0 20100101000000 20100102000000
     STARTTIME        PCKTIME        ENDTIME          ENTRY
20100102000000 20100102000000 20100103000000              1
Exporting timestep      2     2     1 20100102000000 20100103000000

 Writing ..\..\SIM\NBR11\GWF_1\MODELINPUT\NBR11.CHD6...
Exporting timestep      1     2     0 20100101000000 20100102000000
     STARTTIME        PCKTIME        ENDTIME          ENTRY
20100102000000 20100102000000 20100103000000              1
Exporting timestep      2     2     1 20100102000000 20100103000000

 Writing ..\..\SIM\NBR11\GWF_1\MODELINPUT\NBR11.CHD6...
Exporting timestep      1     2     0 20100101000000 20100102000000
     STARTTIME        PCKTIME        ENDTIME          ENTRY
20100102000000 20100102000000 20100103000000              1
Exporting timestep      2     2     1 20100102000000 20100103000000

 Writing ..\..\SIM\NBR11\GWF_1\MODELINPUT\NBR11.CHD6...
Exporting timestep      1     2     0 20100101000000 20100102000000
     STARTTIME        PCKTIME        ENDTIME          ENTRY
20100102000000 20100102000000 20100103000000              1
Exporting timestep      2     2     1 20100102000000 20100103000000

 Writing MetaSwap files ...
Progress 12.50%             Progress 25.00%             Progress 37.50%             Progress 50.00%             Progress 25.00%             Progress 50.00%             Progress 75.00%             Progress 100.00%                     1 file(s) copied.
        1 file(s) copied.
        1 file(s) copied.
        1 file(s) copied.
        1 file(s) copied.


Successfully written MF6 files:..\..\Sim\NBr11\NBr11.nam


iMOD removed tmp-folder:
  C:\OD\WS_Mdl\models\NBr\code\Mdl_Prep\IMOD_TMP\BATCH1

[Fri May  9 15:06:01 2025]
Finished jobid: 2 (Rule: Mdl_Prep)
2 of 4 steps (50%) done
Removing temporary output C:/OD/WS_Mdl/models/NBr/code/snakemake/temp/Log_init_done_NBr11.
Select jobs to execute...
Execute 1 jobs...

[Fri May  9 15:06:01 2025]
localrule add_OBS:
    input: C:/OD/WS_Mdl/code/WS_Mdl/WS_Mdl.py, C:/OD/WS_Mdl/models/NBr/Sim/NBr11/RUN.BAT
    output: C:/OD/WS_Mdl/models/NBr/Sim/NBr11/GWF_1/MODELINPUT/NBr11.OBS
    jobid: 1
    reason: Missing output files: C:/OD/WS_Mdl/models/NBr/Sim/NBr11/GWF_1/MODELINPUT/NBr11.OBS; Input files updated by another job: C:/OD/WS_Mdl/models/NBr/Sim/NBr11/RUN.BAT
    resources: tmpdir=C:\Users\Karam014\AppData\Local\Temp
Shell command: None
[Fri May  9 15:06:03 2025]
Finished jobid: 1 (Rule: add_OBS)
3 of 4 steps (75%) done
Select jobs to execute...
Execute 1 jobs...

[Fri May  9 15:06:03 2025]
localrule all:
    input: C:/OD/WS_Mdl/models/NBr/Sim/NBr11/GWF_1/MODELINPUT/NBr11.OBS
    jobid: 0
    reason: Input files updated by another job: C:/OD/WS_Mdl/models/NBr/Sim/NBr11/GWF_1/MODELINPUT/NBr11.OBS
    resources: tmpdir=C:\Users\Karam014\AppData\Local\Temp
Shell command: None
[Fri May  9 15:06:03 2025]
Finished jobid: 0 (Rule: all)
4 of 4 steps (100%) done
Complete log(s): C:\OD\WS_Mdl\models\NBr\.snakemake\log\2025-05-09T150554.540720.snakemake.log
--------------------------------------------------------------------------------
Running add_OBS ...
C:/OD/WS_Mdl\models/NBr\Sim/NBr11
..\..\In\OBS\NBr7\ijkset_selectie_NBr7.ipf
C:\OD\WS_Mdl\models\NBr\In\OBS\NBr7\ijkset_selectie_NBr7.ipf
C:/OD/WS_Mdl\models/NBr\Sim/NBr11\GWF_1/MODELINPUT/NBr11.OBS has been added successfully!

Goodbye, friend.
********************************************************************************

