Assuming unrestricted shared filesystem usage.
host: UU120516
Building DAG of jobs...
Provided cores: 10
Rules claiming more threads will be scaled down.
Job stats:
job                count
---------------  -------
GXG                    1
Mdl_Prep               1
PRJ_to_TIF             1
Sim                    1
Up_MM                  1
add_OBS                1
add_SFR_by_copy        1
all                    1
log_Init               1
total                  9

Select jobs to execute...
Execute 1 jobs...

[Thu Jun 19 13:49:19 2025]
localrule log_Init:
    output: C:/OD/WS_Mdl/models/NBr/code/snakemake/temp/Log_init_done_NBr17
    jobid: 4
    reason: Missing output files: C:/OD/WS_Mdl/models/NBr/code/snakemake/temp/Log_init_done_NBr17
    resources: tmpdir=C:\Users\Karam014\AppData\Local\Temp
Shell command: None
[Thu Jun 19 13:49:23 2025]
Finished jobid: 4 (Rule: log_Init)
1 of 9 steps (11%) done
Select jobs to execute...
Execute 1 jobs...

[Thu Jun 19 13:49:23 2025]
localrule Mdl_Prep:
    input: C:/OD/WS_Mdl/models/NBr/code/snakemake/temp/Log_init_done_NBr17, code/Mdl_Prep/Mdl_Prep_NBr17.bat, code/Mdl_Prep/Mdl_Prep_NBr17.ini, In/PRJ/NBr17.prj
    output: C:/OD/WS_Mdl/models/NBr/Sim/NBr17/RUN.BAT
    jobid: 3
    reason: Missing output files: C:/OD/WS_Mdl/models/NBr/Sim/NBr17/RUN.BAT; Input files updated by another job: C:/OD/WS_Mdl/models/NBr/code/snakemake/temp/Log_init_done_NBr17
    resources: tmpdir=C:\Users\Karam014\AppData\Local\Temp
Shell command: call code/Mdl_Prep/Mdl_Prep_NBr17.bat

 ==================================================
 Running iMOD: 
  exe: C:\OD\WS_Mdl\software\iMOD5\iMOD_V5_6_1.exe
  dir: C:\OD\WS_Mdl\models\NBr\code\Mdl_Prep
 ==================================================


EXECUTING FUNCTION >>> RUNFILE <<<


iMODBATCH using tmp-folder:
  C:\OD\WS_Mdl\models\NBr\code\Mdl_Prep\IMOD_TMP\BATCH1

PRJFILE_IN=..\..\In\PRJ\NBr17.prj

Export to MODFLOW6 files

NAMFILE_OUT=..\..\Sim\NBr17\NBr17.nam
WINDOW=     113100.000     387600.000     125100.000     396200.000
CELLSIZE=         25.000
ISS=         1
SDATE=20100101000000
EDATE=20100103000000
ITT=             3
IDT=             1
Time step:     1 days
NSTEP=         1
ISTEADY=         0
SSYSTEM=         1
SAVESHD=-1
SAVEDRN=1
SAVERIV=1
SAVEWEL=1
SAVEFLX=1
PCKACTIVE=0
COUPLER=..\..\..\..\software\iMOD5\bin\iMOD_coupler
ISOLVE=         0

iMOD found model with 37 layers

Reading BND-files (2.70%)      Reading BND-files (5.41%)      Reading BND-files (8.11%)      Reading BND-files (10.81%)      Reading BND-files (13.51%)      Reading BND-files (16.22%)      Reading BND-files (18.92%)      Reading BND-files (21.62%)      Reading BND-files (24.32%)      Reading BND-files (27.03%)      Reading BND-files (29.73%)      Reading BND-files (32.43%)      Reading BND-files (35.14%)      Reading BND-files (37.84%)      Reading BND-files (40.54%)      Reading BND-files (43.24%)      Reading BND-files (45.95%)      Reading BND-files (48.65%)      Reading BND-files (51.35%)      Reading BND-files (54.05%)      Reading BND-files (56.76%)      Reading BND-files (59.46%)      Reading BND-files (62.16%)      Reading BND-files (64.86%)      Reading BND-files (67.57%)      Reading BND-files (70.27%)      Reading BND-files (72.97%)      Reading BND-files (75.68%)      Reading BND-files (78.38%)      Reading BND-files (81.08%)      Reading BND-files (83.78%)      Reading BND-files (86.49%)      Reading BND-files (89.19%)      Reading BND-files (91.89%)      Reading BND-files (94.59%)      Reading BND-files (97.30%)      Reading BND-files (100.00%)      
Modified boundary layer 1 due to submodelling N/S/W/E: 478/478/344/344
Modified boundary layer 2 due to submodelling N/S/W/E: 478/478/344/344
Modified boundary layer 3 due to submodelling N/S/W/E: 478/478/344/344
Modified boundary layer 4 due to submodelling N/S/W/E: 478/478/344/344
Modified boundary layer 5 due to submodelling N/S/W/E: 478/478/344/344
Modified boundary layer 6 due to submodelling N/S/W/E: 478/478/344/344
Modified boundary layer 7 due to submodelling N/S/W/E: 478/478/344/344
Modified boundary layer 8 due to submodelling N/S/W/E: 478/478/344/344
Modified boundary layer 9 due to submodelling N/S/W/E: 478/478/344/344
Modified boundary layer 10 due to submodelling N/S/W/E: 478/478/344/344
Modified boundary layer 11 due to submodelling N/S/W/E: 478/478/344/344
Modified boundary layer 12 due to submodelling N/S/W/E: 478/478/344/344
Modified boundary layer 13 due to submodelling N/S/W/E: 478/478/344/344
Modified boundary layer 14 due to submodelling N/S/W/E: 478/478/344/344
Modified boundary layer 15 due to submodelling N/S/W/E: 478/478/344/344
Modified boundary layer 16 due to submodelling N/S/W/E: 478/478/344/344
Modified boundary layer 17 due to submodelling N/S/W/E: 478/478/344/344
Modified boundary layer 18 due to submodelling N/S/W/E: 478/478/344/344
Modified boundary layer 19 due to submodelling N/S/W/E: 478/478/344/344
Modified boundary layer 20 due to submodelling N/S/W/E: 478/478/344/344
Modified boundary layer 21 due to submodelling N/S/W/E: 478/478/344/344
Modified boundary layer 22 due to submodelling N/S/W/E: 478/478/344/344
Modified boundary layer 23 due to submodelling N/S/W/E: 478/478/344/344
Modified boundary layer 24 due to submodelling N/S/W/E: 478/478/344/344
Modified boundary layer 25 due to submodelling N/S/W/E: 478/478/344/344
Modified boundary layer 26 due to submodelling N/S/W/E: 478/478/344/344
Modified boundary layer 27 due to submodelling N/S/W/E: 478/478/344/344
Modified boundary layer 28 due to submodelling N/S/W/E: 478/478/344/344
Modified boundary layer 29 due to submodelling N/S/W/E: 478/478/344/344
Modified boundary layer 30 due to submodelling N/S/W/E: 478/478/344/344
Modified boundary layer 31 due to submodelling N/S/W/E: 478/478/344/344
Modified boundary layer 32 due to submodelling N/S/W/E: 478/478/344/344
Modified boundary layer 33 due to submodelling N/S/W/E: 478/478/344/344
Modified boundary layer 34 due to submodelling N/S/W/E: 478/478/344/344
Modified boundary layer 35 due to submodelling N/S/W/E: 478/478/344/344
Modified boundary layer 36 due to submodelling N/S/W/E: 478/478/344/344
Modified boundary layer 37 due to submodelling N/S/W/E: 478/478/344/344
Reading SHD-files (2.70%)      Reading SHD-files (5.41%)      Reading SHD-files (8.11%)      Reading SHD-files (10.81%)      Reading SHD-files (13.51%)      Reading SHD-files (16.22%)      Reading SHD-files (18.92%)      Reading SHD-files (21.62%)      Reading SHD-files (24.32%)      Reading SHD-files (27.03%)      Reading SHD-files (29.73%)      Reading SHD-files (32.43%)      Reading SHD-files (35.14%)      Reading SHD-files (37.84%)      Reading SHD-files (40.54%)      Reading SHD-files (43.24%)      Reading SHD-files (45.95%)      Reading SHD-files (48.65%)      Reading SHD-files (51.35%)      Reading SHD-files (54.05%)      Reading SHD-files (56.76%)      Reading SHD-files (59.46%)      Reading SHD-files (62.16%)      Reading SHD-files (64.86%)      Reading SHD-files (67.57%)      Reading SHD-files (70.27%)      Reading SHD-files (72.97%)      Reading SHD-files (75.68%)      Reading SHD-files (78.38%)      Reading SHD-files (81.08%)      Reading SHD-files (83.78%)      Reading SHD-files (86.49%)      Reading SHD-files (89.19%)      Reading SHD-files (91.89%)      Reading SHD-files (94.59%)      Reading SHD-files (97.30%)      Reading SHD-files (100.00%)      Reading TOP/BOT-files (2.70%)      Reading TOP/BOT-files (5.41%)      Reading TOP/BOT-files (8.11%)      Reading TOP/BOT-files (10.81%)      Reading TOP/BOT-files (13.51%)      Reading TOP/BOT-files (16.22%)      Reading TOP/BOT-files (18.92%)      Reading TOP/BOT-files (21.62%)      Reading TOP/BOT-files (24.32%)      Reading TOP/BOT-files (27.03%)      Reading TOP/BOT-files (29.73%)      Reading TOP/BOT-files (32.43%)      Reading TOP/BOT-files (35.14%)      Reading TOP/BOT-files (37.84%)      Reading TOP/BOT-files (40.54%)      Reading TOP/BOT-files (43.24%)      Reading TOP/BOT-files (45.95%)      Reading TOP/BOT-files (48.65%)      Reading TOP/BOT-files (51.35%)      Reading TOP/BOT-files (54.05%)      Reading TOP/BOT-files (56.76%)      Reading TOP/BOT-files (59.46%)      Reading TOP/BOT-files (62.16%)      Reading TOP/BOT-files (64.86%)      Reading TOP/BOT-files (67.57%)      Reading TOP/BOT-files (70.27%)      Reading TOP/BOT-files (72.97%)      Reading TOP/BOT-files (75.68%)      Reading TOP/BOT-files (78.38%)      Reading TOP/BOT-files (81.08%)      Reading TOP/BOT-files (83.78%)      Reading TOP/BOT-files (86.49%)      Reading TOP/BOT-files (89.19%)      Reading TOP/BOT-files (91.89%)      Reading TOP/BOT-files (94.59%)      Reading TOP/BOT-files (97.30%)      Reading TOP/BOT-files (100.00%)      Reading LPF-files Permeability components (2.70%)      Reading LPF-files Permeability components (5.41%)      Reading LPF-files Permeability components (8.11%)      Reading LPF-files Permeability components (10.81%)      Reading LPF-files Permeability components (13.51%)      Reading LPF-files Permeability components (16.22%)      Reading LPF-files Permeability components (18.92%)      Reading LPF-files Permeability components (21.62%)      Reading LPF-files Permeability components (24.32%)      Reading LPF-files Permeability components (27.03%)      Reading LPF-files Permeability components (29.73%)      Reading LPF-files Permeability components (32.43%)      Reading LPF-files Permeability components (35.14%)      Reading LPF-files Permeability components (37.84%)      Reading LPF-files Permeability components (40.54%)      Reading LPF-files Permeability components (43.24%)      Reading LPF-files Permeability components (45.95%)      Reading LPF-files Permeability components (48.65%)      Reading LPF-files Permeability components (51.35%)      Reading LPF-files Permeability components (54.05%)      Reading LPF-files Permeability components (56.76%)      Reading LPF-files Permeability components (59.46%)      Reading LPF-files Permeability components (62.16%)      Reading LPF-files Permeability components (64.86%)      Reading LPF-files Permeability components (67.57%)      Reading LPF-files Permeability components (70.27%)      Reading LPF-files Permeability components (72.97%)      Reading LPF-files Permeability components (75.68%)      Reading LPF-files Permeability components (78.38%)      Reading LPF-files Permeability components (81.08%)      Reading LPF-files Permeability components (83.78%)      Reading LPF-files Permeability components (86.49%)      Reading LPF-files Permeability components (89.19%)      Reading LPF-files Permeability components (91.89%)      Reading LPF-files Permeability components (94.59%)      Reading LPF-files Permeability components (97.30%)      Reading LPF-files Permeability components (100.00%)      Reading LPF-files Storage components (2.70%)      Reading LPF-files Storage components (5.41%)      Reading LPF-files Storage components (8.11%)      Reading LPF-files Storage components (10.81%)      Reading LPF-files Storage components (13.51%)      Reading LPF-files Storage components (16.22%)      Reading LPF-files Storage components (18.92%)      Reading LPF-files Storage components (21.62%)      Reading LPF-files Storage components (24.32%)      Reading LPF-files Storage components (27.03%)      Reading LPF-files Storage components (29.73%)      Reading LPF-files Storage components (32.43%)      Reading LPF-files Storage components (35.14%)      Reading LPF-files Storage components (37.84%)      Reading LPF-files Storage components (40.54%)      Reading LPF-files Storage components (43.24%)      Reading LPF-files Storage components (45.95%)      Reading LPF-files Storage components (48.65%)      Reading LPF-files Storage components (51.35%)      Reading LPF-files Storage components (54.05%)      Reading LPF-files Storage components (56.76%)      Reading LPF-files Storage components (59.46%)      Reading LPF-files Storage components (62.16%)      Reading LPF-files Storage components (64.86%)      Reading LPF-files Storage components (67.57%)      Reading LPF-files Storage components (70.27%)      Reading LPF-files Storage components (72.97%)      Reading LPF-files Storage components (75.68%)      Reading LPF-files Storage components (78.38%)      Reading LPF-files Storage components (81.08%)      Reading LPF-files Storage components (83.78%)      Reading LPF-files Storage components (86.49%)      Reading LPF-files Storage components (89.19%)      Reading LPF-files Storage components (91.89%)      Reading LPF-files Storage components (94.59%)      Reading LPF-files Storage components (97.30%)      Reading LPF-files Storage components (100.00%)      

 Writing ..\..\SIM\NBR17\GWF_1\MODELINPUT\NBR17.IC6...

 Writing ..\..\SIM\NBR17\GWF_1\MODELINPUT\NBR17.DIS6...

 Writing ..\..\SIM\NBR17\GWF_1\MODELINPUT\NBR17.NPF6...

 Writing ..\..\SIM\NBR17\GWF_1\MODELINPUT\NBR17.STO6...

 Writing ..\..\SIM\NBR17\GWF_1\MODELINPUT\NBR17.HFB6...

 Writing ..\..\SIM\NBR17\GWF_1\MODELINPUT\NBR17.WEL6...
     STARTTIME        PCKTIME        ENDTIME          ENTRY
20100101000000 20100101000000 20100102000000              2
Exporting timestep      1     2     2 20100101000000 20100102000000Exporting timestep      2     2     2 20100102000000 20100103000000

 Writing ..\..\SIM\NBR17\GWF_1\MODELINPUT\NBR17.DRN6...
     STARTTIME        PCKTIME        ENDTIME          ENTRY
20100101000000 20100101000000 20100102000000              2
Exporting timestep      1     2     2 20100101000000 20100102000000Exporting timestep      2     2    -2 20100102000000 20100103000000

 Writing ..\..\SIM\NBR17\GWF_1\MODELINPUT\NBR17.CHD6...
Exporting timestep      1     2     0 20100101000000 20100102000000Exporting timestep      2     2     0 20100102000000 20100103000000

 Writing MetaSwap files ...
Progress 0.15%             Progress 0.29%             Progress 0.44%             Progress 0.58%             Progress 0.73%             Progress 0.87%             Progress 1.02%             Progress 1.16%             Progress 1.31%             Progress 1.45%             Progress 1.60%             Progress 1.74%             Progress 1.89%             Progress 2.03%             Progress 2.18%             Progress 2.33%             Progress 2.47%             Progress 2.62%             Progress 2.76%             Progress 2.91%             Progress 3.05%             Progress 3.20%             Progress 3.34%             Progress 3.49%             Progress 3.63%             Progress 3.78%             Progress 3.92%             Progress 4.07%             Progress 4.22%             Progress 4.36%             Progress 4.51%             Progress 4.65%             Progress 4.80%             Progress 4.94%             Progress 5.09%             Progress 5.23%             Progress 5.38%             Progress 5.52%             Progress 5.67%             Progress 5.81%             Progress 5.96%             Progress 6.10%             Progress 6.25%             Progress 6.40%             Progress 6.54%             Progress 6.69%             Progress 6.83%             Progress 6.98%             Progress 7.12%             Progress 7.27%             Progress 7.41%             Progress 7.56%             Progress 7.70%             Progress 7.85%             Progress 7.99%             Progress 8.14%             Progress 8.28%             Progress 8.43%             Progress 8.58%             Progress 8.72%             Progress 8.87%             Progress 9.01%             Progress 9.16%             Progress 9.30%             Progress 9.45%             Progress 9.59%             Progress 9.74%             Progress 9.88%             Progress 10.03%             Progress 10.17%             Progress 10.32%             Progress 10.47%             Progress 10.61%             Progress 10.76%             Progress 10.90%             Progress 11.05%             Progress 11.19%             Progress 11.34%             Progress 11.48%             Progress 11.63%             Progress 11.77%             Progress 11.92%             Progress 12.06%             Progress 12.21%             Progress 12.35%             Progress 12.50%             Progress 12.65%             Progress 12.79%             Progress 12.94%             Progress 13.08%             Progress 13.23%             Progress 13.37%             Progress 13.52%             Progress 13.66%             Progress 13.81%             Progress 13.95%             Progress 14.10%             Progress 14.24%             Progress 14.39%             Progress 14.53%             Progress 14.68%             Progress 14.83%             Progress 14.97%             Progress 15.12%             Progress 15.26%             Progress 15.41%             Progress 15.55%             Progress 15.70%             Progress 15.84%             Progress 15.99%             Progress 16.13%             Progress 16.28%             Progress 16.42%             Progress 16.57%             Progress 16.72%             Progress 16.86%             Progress 17.01%             Progress 17.15%             Progress 17.30%             Progress 17.44%             Progress 17.59%             Progress 17.73%             Progress 17.88%             Progress 18.02%             Progress 18.17%             Progress 18.31%             Progress 18.46%             Progress 18.60%             Progress 18.75%             Progress 18.90%             Progress 19.04%             Progress 19.19%             Progress 19.33%             Progress 19.48%             Progress 19.62%             Progress 19.77%             Progress 19.91%             Progress 20.06%             Progress 20.20%             Progress 20.35%             Progress 20.49%             Progress 20.64%             Progress 20.78%             Progress 20.93%             Progress 21.08%             Progress 21.22%             Progress 21.37%             Progress 21.51%             Progress 21.66%             Progress 21.80%             Progress 21.95%             Progress 22.09%             Progress 22.24%             Progress 22.38%             Progress 22.53%             Progress 22.67%             Progress 22.82%             Progress 22.97%             Progress 23.11%             Progress 23.26%             Progress 23.40%             Progress 23.55%             Progress 23.69%             Progress 23.84%             Progress 23.98%             Progress 24.13%             Progress 24.27%             Progress 24.42%             Progress 24.56%             Progress 24.71%             Progress 24.85%             Progress 25.00%             Progress 25.15%             Progress 25.29%             Progress 25.44%             Progress 25.58%             Progress 25.73%             Progress 25.87%             Progress 26.02%             Progress 26.16%             Progress 26.31%             Progress 26.45%             Progress 26.60%             Progress 26.74%             Progress 26.89%             Progress 27.03%             Progress 27.18%             Progress 27.33%             Progress 27.47%             Progress 27.62%             Progress 27.76%             Progress 27.91%             Progress 28.05%             Progress 28.20%             Progress 28.34%             Progress 28.49%             Progress 28.63%             Progress 28.78%             Progress 28.92%             Progress 29.07%             Progress 29.22%             Progress 29.36%             Progress 29.51%             Progress 29.65%             Progress 29.80%             Progress 29.94%             Progress 30.09%             Progress 30.23%             Progress 30.38%             Progress 30.52%             Progress 30.67%             Progress 30.81%             Progress 30.96%             Progress 31.10%             Progress 31.25%             Progress 31.40%             Progress 31.54%             Progress 31.69%             Progress 31.83%             Progress 31.98%             Progress 32.12%             Progress 32.27%             Progress 32.41%             Progress 32.56%             Progress 32.70%             Progress 32.85%             Progress 32.99%             Progress 33.14%             Progress 33.28%             Progress 33.43%             Progress 33.58%             Progress 33.72%             Progress 33.87%             Progress 34.01%             Progress 34.16%             Progress 34.30%             Progress 34.45%             Progress 34.59%             Progress 34.74%             Progress 34.88%             Progress 35.03%             Progress 35.17%             Progress 35.32%             Progress 35.47%             Progress 35.61%             Progress 35.76%             Progress 35.90%             Progress 36.05%             Progress 36.19%             Progress 36.34%             Progress 36.48%             Progress 36.63%             Progress 36.77%             Progress 36.92%             Progress 37.06%             Progress 37.21%             Progress 37.35%             Progress 37.50%             Progress 37.65%             Progress 37.79%             Progress 37.94%             Progress 38.08%             Progress 38.23%             Progress 38.37%             Progress 38.52%             Progress 38.66%             Progress 38.81%             Progress 38.95%             Progress 39.10%             Progress 39.24%             Progress 39.39%             Progress 39.53%             Progress 39.68%             Progress 39.83%             Progress 39.97%             Progress 40.12%             Progress 40.26%             Progress 40.41%             Progress 40.55%             Progress 40.70%             Progress 40.84%             Progress 40.99%             Progress 41.13%             Progress 41.28%             Progress 41.42%             Progress 41.57%             Progress 41.72%             Progress 41.86%             Progress 42.01%             Progress 42.15%             Progress 42.30%             Progress 42.44%             Progress 42.59%             Progress 42.73%             Progress 42.88%             Progress 43.02%             Progress 43.17%             Progress 43.31%             Progress 43.46%             Progress 43.60%             Progress 43.75%             Progress 43.90%             Progress 44.04%             Progress 44.19%             Progress 44.33%             Progress 44.48%             Progress 44.62%             Progress 44.77%             Progress 44.91%             Progress 45.06%             Progress 45.20%             Progress 45.35%             Progress 45.49%             Progress 45.64%             Progress 45.78%             Progress 45.93%             Progress 46.08%             Progress 46.22%             Progress 46.37%             Progress 46.51%             Progress 46.66%             Progress 46.80%             Progress 46.95%             Progress 47.09%             Progress 47.24%             Progress 47.38%             Progress 47.53%             Progress 47.67%             Progress 47.82%             Progress 47.97%             Progress 48.11%             Progress 48.26%             Progress 48.40%             Progress 48.55%             Progress 48.69%             Progress 48.84%             Progress 48.98%             Progress 49.13%             Progress 49.27%             Progress 49.42%             Progress 49.56%             Progress 49.71%             Progress 49.85%             Progress 50.00%             Progress 0.29%             Progress 0.58%             Progress 0.87%             Progress 1.16%             Progress 1.45%             Progress 1.74%             Progress 2.03%             Progress 2.33%             Progress 2.62%             Progress 2.91%             Progress 3.20%             Progress 3.49%             Progress 3.78%             Progress 4.07%             Progress 4.36%             Progress 4.65%             Progress 4.94%             Progress 5.23%             Progress 5.52%             Progress 5.81%             Progress 6.10%             Progress 6.40%             Progress 6.69%             Progress 6.98%             Progress 7.27%             Progress 7.56%             Progress 7.85%             Progress 8.14%             Progress 8.43%             Progress 8.72%             Progress 9.01%             Progress 9.30%             Progress 9.59%             Progress 9.88%             Progress 10.17%             Progress 10.47%             Progress 10.76%             Progress 11.05%             Progress 11.34%             Progress 11.63%             Progress 11.92%             Progress 12.21%             Progress 12.50%             Progress 12.79%             Progress 13.08%             Progress 13.37%             Progress 13.66%             Progress 13.95%             Progress 14.24%             Progress 14.53%             Progress 14.83%             Progress 15.12%             Progress 15.41%             Progress 15.70%             Progress 15.99%             Progress 16.28%             Progress 16.57%             Progress 16.86%             Progress 17.15%             Progress 17.44%             Progress 17.73%             Progress 18.02%             Progress 18.31%             Progress 18.60%             Progress 18.90%             Progress 19.19%             Progress 19.48%             Progress 19.77%             Progress 20.06%             Progress 20.35%             Progress 20.64%             Progress 20.93%             Progress 21.22%             Progress 21.51%             Progress 21.80%             Progress 22.09%             Progress 22.38%             Progress 22.67%             Progress 22.97%             Progress 23.26%             Progress 23.55%             Progress 23.84%             Progress 24.13%             Progress 24.42%             Progress 24.71%             Progress 25.00%             Progress 25.29%             Progress 25.58%             Progress 25.87%             Progress 26.16%             Progress 26.45%             Progress 26.74%             Progress 27.03%             Progress 27.33%             Progress 27.62%             Progress 27.91%             Progress 28.20%             Progress 28.49%             Progress 28.78%             Progress 29.07%             Progress 29.36%             Progress 29.65%             Progress 29.94%             Progress 30.23%             Progress 30.52%             Progress 30.81%             Progress 31.10%             Progress 31.40%             Progress 31.69%             Progress 31.98%             Progress 32.27%             Progress 32.56%             Progress 32.85%             Progress 33.14%             Progress 33.43%             Progress 33.72%             Progress 34.01%             Progress 34.30%             Progress 34.59%             Progress 34.88%             Progress 35.17%             Progress 35.47%             Progress 35.76%             Progress 36.05%             Progress 36.34%             Progress 36.63%             Progress 36.92%             Progress 37.21%             Progress 37.50%             Progress 37.79%             Progress 38.08%             Progress 38.37%             Progress 38.66%             Progress 38.95%             Progress 39.24%             Progress 39.53%             Progress 39.83%             Progress 40.12%             Progress 40.41%             Progress 40.70%             Progress 40.99%             Progress 41.28%             Progress 41.57%             Progress 41.86%             Progress 42.15%             Progress 42.44%             Progress 42.73%             Progress 43.02%             Progress 43.31%             Progress 43.60%             Progress 43.90%             Progress 44.19%             Progress 44.48%             Progress 44.77%             Progress 45.06%             Progress 45.35%             Progress 45.64%             Progress 45.93%             Progress 46.22%             Progress 46.51%             Progress 46.80%             Progress 47.09%             Progress 47.38%             Progress 47.67%             Progress 47.97%             Progress 48.26%             Progress 48.55%             Progress 48.84%             Progress 49.13%             Progress 49.42%             Progress 49.71%             Progress 50.00%             Progress 50.29%             Progress 50.58%             Progress 50.87%             Progress 51.16%             Progress 51.45%             Progress 51.74%             Progress 52.03%             Progress 52.33%             Progress 52.62%             Progress 52.91%             Progress 53.20%             Progress 53.49%             Progress 53.78%             Progress 54.07%             Progress 54.36%             Progress 54.65%             Progress 54.94%             Progress 55.23%             Progress 55.52%             Progress 55.81%             Progress 56.10%             Progress 56.40%             Progress 56.69%             Progress 56.98%             Progress 57.27%             Progress 57.56%             Progress 57.85%             Progress 58.14%             Progress 58.43%             Progress 58.72%             Progress 59.01%             Progress 59.30%             Progress 59.59%             Progress 59.88%             Progress 60.17%             Progress 60.47%             Progress 60.76%             Progress 61.05%             Progress 61.34%             Progress 61.63%             Progress 61.92%             Progress 62.21%             Progress 62.50%             Progress 62.79%             Progress 63.08%             Progress 63.37%             Progress 63.66%             Progress 63.95%             Progress 64.24%             Progress 64.53%             Progress 64.83%             Progress 65.12%             Progress 65.41%             Progress 65.70%             Progress 65.99%             Progress 66.28%             Progress 66.57%             Progress 66.86%             Progress 67.15%             Progress 67.44%             Progress 67.73%             Progress 68.02%             Progress 68.31%             Progress 68.60%             Progress 68.90%             Progress 69.19%             Progress 69.48%             Progress 69.77%             Progress 70.06%             Progress 70.35%             Progress 70.64%             Progress 70.93%             Progress 71.22%             Progress 71.51%             Progress 71.80%             Progress 72.09%             Progress 72.38%             Progress 72.67%             Progress 72.97%             Progress 73.26%             Progress 73.55%             Progress 73.84%             Progress 74.13%             Progress 74.42%             Progress 74.71%             Progress 75.00%             Progress 75.29%             Progress 75.58%             Progress 75.87%             Progress 76.16%             Progress 76.45%             Progress 76.74%             Progress 77.03%             Progress 77.33%             Progress 77.62%             Progress 77.91%             Progress 78.20%             Progress 78.49%             Progress 78.78%             Progress 79.07%             Progress 79.36%             Progress 79.65%             Progress 79.94%             Progress 80.23%             Progress 80.52%             Progress 80.81%             Progress 81.10%             Progress 81.40%             Progress 81.69%             Progress 81.98%             Progress 82.27%             Progress 82.56%             Progress 82.85%             Progress 83.14%             Progress 83.43%             Progress 83.72%             Progress 84.01%             Progress 84.30%             Progress 84.59%             Progress 84.88%             Progress 85.17%             Progress 85.47%             Progress 85.76%             Progress 86.05%             Progress 86.34%             Progress 86.63%             Progress 86.92%             Progress 87.21%             Progress 87.50%             Progress 87.79%             Progress 88.08%             Progress 88.37%             Progress 88.66%             Progress 88.95%             Progress 89.24%             Progress 89.53%             Progress 89.83%             Progress 90.12%             Progress 90.41%             Progress 90.70%             Progress 90.99%             Progress 91.28%             Progress 91.57%             Progress 91.86%             Progress 92.15%             Progress 92.44%             Progress 92.73%             Progress 93.02%             Progress 93.31%             Progress 93.60%             Progress 93.90%             Progress 94.19%             Progress 94.48%             Progress 94.77%             Progress 95.06%             Progress 95.35%             Progress 95.64%             Progress 95.93%             Progress 96.22%             Progress 96.51%             Progress 96.80%             Progress 97.09%             Progress 97.38%             Progress 97.67%             Progress 97.97%             Progress 98.26%             Progress 98.55%             Progress 98.84%             Progress 99.13%             Progress 99.42%             Progress 99.71%             Progress 100.00%                     1 file(s) copied.
        1 file(s) copied.
        1 file(s) copied.
        1 file(s) copied.
        1 file(s) copied.


Successfully written MF6 files:..\..\Sim\NBr17\NBr17.nam


iMOD removed tmp-folder:
  C:\OD\WS_Mdl\models\NBr\code\Mdl_Prep\IMOD_TMP\BATCH1

[Thu Jun 19 13:50:17 2025]
Finished jobid: 3 (Rule: Mdl_Prep)
2 of 9 steps (22%) done
Removing temporary output C:/OD/WS_Mdl/models/NBr/code/snakemake/temp/Log_init_done_NBr17.
Select jobs to execute...
Execute 1 jobs...

[Thu Jun 19 13:50:17 2025]
localrule add_OBS:
    input: C:/OD/WS_Mdl/models/NBr/Sim/NBr17/RUN.BAT
    output: C:/OD/WS_Mdl/models/NBr/Sim/NBr17/GWF_1/MODELINPUT/NBr17.OBS6
    jobid: 2
    reason: Missing output files: C:/OD/WS_Mdl/models/NBr/Sim/NBr17/GWF_1/MODELINPUT/NBr17.OBS6; Input files updated by another job: C:/OD/WS_Mdl/models/NBr/Sim/NBr17/RUN.BAT
    resources: tmpdir=C:\Users\Karam014\AppData\Local\Temp
Shell command: None
[Thu Jun 19 13:50:19 2025]
Finished jobid: 2 (Rule: add_OBS)
3 of 9 steps (33%) done
Select jobs to execute...
Execute 1 jobs...

[Thu Jun 19 13:50:19 2025]
localrule add_SFR_by_copy:
    input: C:/OD/WS_Mdl/models/NBr/Sim/NBr17/RUN.BAT, C:/OD/WS_Mdl/models/NBr/Sim/NBr17/GWF_1/MODELINPUT/NBr17.OBS6
    output: C:/OD/WS_Mdl/models/NBr/Sim/NBr17/GWF_1/MODELINPUT/NBr17.SFR6
    jobid: 5
    reason: Missing output files: C:/OD/WS_Mdl/models/NBr/Sim/NBr17/GWF_1/MODELINPUT/NBr17.SFR6; Input files updated by another job: C:/OD/WS_Mdl/models/NBr/Sim/NBr17/GWF_1/MODELINPUT/NBr17.OBS6, C:/OD/WS_Mdl/models/NBr/Sim/NBr17/RUN.BAT
    resources: tmpdir=C:\Users\Karam014\AppData\Local\Temp
Shell command: None
[Thu Jun 19 13:50:19 2025]
Finished jobid: 5 (Rule: add_SFR_by_copy)
4 of 9 steps (44%) done
Select jobs to execute...
Execute 1 jobs...

[Thu Jun 19 13:50:19 2025]
localrule Sim:
    input: C:/OD/WS_Mdl/models/NBr/Sim/NBr17/GWF_1/MODELINPUT/NBr17.OBS6, C:/OD/WS_Mdl/models/NBr/Sim/NBr17/GWF_1/MODELINPUT/NBr17.SFR6
    output: C:/OD/WS_Mdl/models/NBr/code/snakemake/temp/Log_Sim_done_NBr17
    jobid: 1
    reason: Missing output files: C:/OD/WS_Mdl/models/NBr/code/snakemake/temp/Log_Sim_done_NBr17; Input files updated by another job: C:/OD/WS_Mdl/models/NBr/Sim/NBr17/GWF_1/MODELINPUT/NBr17.OBS6, C:/OD/WS_Mdl/models/NBr/Sim/NBr17/GWF_1/MODELINPUT/NBr17.SFR6
    resources: tmpdir=C:\Users\Karam014\AppData\Local\Temp
Shell command: None

C:\OD\WS_Mdl\models\NBr\Sim\NBr17>REM ========================== 

C:\OD\WS_Mdl\models\NBr\Sim\NBr17>REM Run Script iMOD V5_6_1 

C:\OD\WS_Mdl\models\NBr\Sim\NBr17>REM ========================== 

C:\OD\WS_Mdl\models\NBr\Sim\NBr17>TITLE "TOMLFILE: NBr17.toml" 

C:\OD\WS_Mdl\models\NBr\Sim\NBr17>REM run iMOD-coupler with MODFLOW6-METASWAP model 

C:\OD\WS_Mdl\models\NBr\Sim\NBr17>..\..\..\..\software\iMOD5\bin\iMOD_coupler\imodc.exe NBr17.toml 
iMOD Coupler: [1miMOD Coupler 0.11.0-dev[0m
                                   MODFLOW 6
                U.S. GEOLOGICAL SURVEY MODULAR HYDROLOGIC MODEL
                            VERSION 6.4.2 06/28/2023

   MODFLOW 6 compiled Jun 28 2023 18:41:13 with Intel(R) Fortran Intel(R) 64
   Compiler Classic for applications running on Intel(R) 64, Version 2021.7.0
                             Build 20220726_000000

This software has been approved for release by the U.S. Geological 
Survey (USGS). Although the software has been subjected to rigorous 
review, the USGS reserves the right to update the software as needed 
pursuant to further analysis and review. No warranty, expressed or 
implied, is made by the USGS or the U.S. Government as to the 
functionality of the software and related material nor shall the 
fact of release constitute any such warranty. Furthermore, the 
software is released on condition that neither the USGS nor the U.S. 
Government shall be held liable for any damages resulting from its 
authorized or unauthorized use. Also refer to the USGS Water 
Resources Software User Rights Notice for complete use, copyright, 
and distribution information.

 
 Run start date and time (yyyy/mm/dd hh:mm:ss): 2025/06/19 13:50:46
 
 Writing simulation list file: mfsim.lst
 Using Simulation name file: mfsim.nam
 
 
 
MetaSWAP version V8.1.2.4
 Reading file tiop_sim.inp
  Writing file time_sim.inp
 Reading file para_sim.inp
 End reading file para_sim.inp
 Not available file mete_svat.inp           
 Reading file mete_grid.inp           
 Reading file mod2svat.inp
 >> Reading array dimensions
 Reading file area_svat.inp           
 >> Allocating array dimensions
Reading file unsa_svat.bda key-info
 Reading file mod2svat.inp
 --> number of SVATs     coupled to MODFLOW =     183388
 --> number of SVATs not coupled to MODFLOW =          0
 Reading file fact_svat.inp
  -->max. value of vegetation index in fact_svat.inp=  19
 Reading file luse_svat.inp
  -->max. value of vegetation index in luse_svat.inp=  19
  -->max. value of land use   index in luse_svat.inp=  25
 << Reading array dimensions END
 Reading file fact_svat.inp
 Reading file area_svat.inp
 Reading file infi_svat.inp
Reading file unsa_svat.bda bulk data BEGIN
  spu=  36
  spu=  47
  spu=  49
  spu=  50
  spu=  58
  spu=  59
  spu=  67
  spu=  68
  spu=  74
  spu=  77
  spu=  78
  spu=  79
  spu=  81
  spu=  82
  spu=  84
  spu=  88
  spu=  89
  spu=  90
  spu=  93
  spu=  96
  spu=  97
  spu= 100
  spu= 101
  spu= 102
  spu= 105
  spu= 106
  spu= 118
  spu= 120
  spu= 126
  spu= 127
  spu= 129
  spu= 130
  spu= 131
  spu= 135
  spu= 140
  spu= 141
  spu= 146
  spu= 147
  spu= 148
  spu= 151
  spu= 159
  spu= 161
  spu= 164
  spu= 167
  spu= 172
  spu= 176
  spu= 183
  spu= 253
  spu= 360
Reading file unsa_svat.bda bulk data   END
 Converting tables of unsa
 Building sigma tables from unsa_svat.bda
 Reading file svat2swnr_roff.inp      
 Reading file time_sim.inp            
 Not available file mete_svat.inp           
 Reading file svat2PrecGrid.inp       
 Reading file svat2EtrefGrid.inp      
  Openmete Marker -1
 Reading file mete_grid.inp           
  Openmete Marker 0
  Openmete Marker 1
  Openmete Marker 2
  Openmete Marker 3
 Reading file C:\OD\WS_Mdl\models\NBr\In\CAP\P\NBr1\P_20100101_NBr1.asc 
 Reading file C:\OD\WS_Mdl\models\NBr\In\CAP\PET\NBr1\PET_20100101_NBr1.asc 
 Reading file C:\OD\WS_Mdl\models\NBr\In\CAP\P\NBr1\P_20100102_NBr1.asc 
 Reading file C:\OD\WS_Mdl\models\NBr\In\CAP\PET\NBr1\PET_20100102_NBr1.asc 
  Openmete Marker 4
 Reading file scap_svat.inp           
 Reading file area_svat.inp           
 nukey_1 readselsvat=         176
 Reading file sel_key_svat_per.inp    
 nukey_2 readselsvat=         176
 Not available file sel_svat_csv.inp        
MetaSWAP_end, tiac =     0.00
 
MODFLOW_begin
iMOD Coupler: [1mMODFLOW version: 6.4.2[0m
iMOD Coupler: [1mMetaSWAP version: V8.1.2.4[0m
    Solving:  Stress period:     1    Time step:     1
MODFLOW_end
 
MetaSWAP_begin, tiac =     0.00
 Reading file init_svat.inp           
 Processing of initial MODFLOW heads BEGIN
 Processing of initial MODFLOW heads END
 Reading file init_svat.inp           
  -->initialization with qm = P from meteo
>> DO idtsw=1,nudtsw
     msw1top
MetaSWAP_dtsw_begin, tiac =     0.00
 msw1top_begin, k =       1
 msw1top_end,   k =  183388
MetaSWAP_dtsw_end,   tiac =     1.00
<< ENDDO
MetaSWAP_end, tiac =     1.00
 
MODFLOW_begin
 msw1unsa_begin, k        1
 msw1unsa_end,   k   183388
 msw1postfm_qmodf_begin, k =       1
 msw1postfm_qmodf_end  , k =  183388
 
 iter_outer =  1 : [Hgwmsw - Hgwmodf] (svat= 129433)= -0.47779 m
 iter_outer =  1 : [Hgwmsw - Hgwmodf] (svat= 129958)=  0.27109 m
 

 Cumulative relative frequency distribution of [Hgwmsw-Hgwmodf](m)
 0.00000  1e-5   1e-4   1e-3   1e-2   0.5  1-1e-2 1-1e-3 1-1e-4 1-1e-5 1.00000
 -0.477 -0.296 -0.108 -0.069 -0.009  0.000  0.029  0.068  0.107  0.175  0.271
 
   msw1postfm_sc1_begin, k =       1
   msw1postfm_sc1_end  , k =  183388

 msw1postfm_qmodf_begin, k =       1
 msw1postfm_qmodf_end  , k =  183388
 
 iter_outer =  2 : [Hgwmsw - Hgwmodf] (svat= 129433)= -0.32125 m
 iter_outer =  2 : [Hgwmsw - Hgwmodf] (svat= 129958)=  0.21290 m
 

 Cumulative relative frequency distribution of [Hgwmsw-Hgwmodf](m)
 0.00000  1e-5   1e-4   1e-3   1e-2   0.5  1-1e-2 1-1e-3 1-1e-4 1-1e-5 1.00000
 -0.320 -0.173 -0.036 -0.017 -0.002  0.000  0.005  0.039  0.103  0.165  0.213
 
   msw1postfm_sc1_begin, k =       1
   msw1postfm_sc1_end  , k =  183388

 msw1postfm_qmodf_begin, k =       1
 msw1postfm_qmodf_end  , k =  183388
 
 iter_outer =  3 : [Hgwmsw - Hgwmodf] (svat= 129433)= -0.11541 m
 iter_outer =  3 : [Hgwmsw - Hgwmodf] (svat= 129958)=  0.16484 m
 

 Cumulative relative frequency distribution of [Hgwmsw-Hgwmodf](m)
 0.00000  1e-5   1e-4   1e-3   1e-2   0.5  1-1e-2 1-1e-3 1-1e-4 1-1e-5 1.00000
 -0.114 -0.035 -0.020 -0.008 -0.001  0.000  0.002  0.030  0.074  0.127  0.165
 
   msw1postfm_sc1_begin, k =       1
   msw1postfm_sc1_end  , k =  183388

 msw1postfm_qmodf_begin, k =       1
 msw1postfm_qmodf_end  , k =  183388
 
 iter_outer =  4 : [Hgwmsw - Hgwmodf] (svat=  54242)= -0.05807 m
 iter_outer =  4 : [Hgwmsw - Hgwmodf] (svat= 129958)=  0.12239 m
 

 Cumulative relative frequency distribution of [Hgwmsw-Hgwmodf](m)
 0.00000  1e-5   1e-4   1e-3   1e-2   0.5  1-1e-2 1-1e-3 1-1e-4 1-1e-5 1.00000
 -0.057 -0.050 -0.037 -0.011  0.000  0.000  0.001  0.005  0.020  0.083  0.122
 
   msw1postfm_sc1_begin, k =       1
   msw1postfm_sc1_end  , k =  183388

 msw1postfm_qmodf_begin, k =       1
 msw1postfm_qmodf_end  , k =  183388
 
 iter_outer =  5 : [Hgwmsw - Hgwmodf] (svat= 169883)= -0.02668 m
 iter_outer =  5 : [Hgwmsw - Hgwmodf] (svat= 130475)=  0.10174 m
 

 Cumulative relative frequency distribution of [Hgwmsw-Hgwmodf](m)
 0.00000  1e-5   1e-4   1e-3   1e-2   0.5  1-1e-2 1-1e-3 1-1e-4 1-1e-5 1.00000
 -0.026 -0.022 -0.008 -0.003  0.000  0.000  0.000  0.005  0.030  0.064  0.102
 
   msw1postfm_sc1_begin, k =       1
   msw1postfm_sc1_end  , k =  183388

 msw1postfm_qmodf_begin, k =       1
 msw1postfm_qmodf_end  , k =  183388
 
 iter_outer =  6 : [Hgwmsw - Hgwmodf] (svat=  71572)= -0.01547 m
 iter_outer =  6 : [Hgwmsw - Hgwmodf] (svat= 130475)=  0.08292 m
 

 Cumulative relative frequency distribution of [Hgwmsw-Hgwmodf](m)
 0.00000  1e-5   1e-4   1e-3   1e-2   0.5  1-1e-2 1-1e-3 1-1e-4 1-1e-5 1.00000
 -0.014 -0.013 -0.005 -0.001  0.000  0.000  0.000  0.002  0.012  0.049  0.083
 
   msw1postfm_sc1_begin, k =       1
   msw1postfm_sc1_end  , k =  183388

 msw1postfm_qmodf_begin, k =       1
 msw1postfm_qmodf_end  , k =  183388
 
 iter_outer =  7 : [Hgwmsw - Hgwmodf] (svat= 147326)= -0.01306 m
 iter_outer =  7 : [Hgwmsw - Hgwmodf] (svat= 130475)=  0.06490 m
 

 Cumulative relative frequency distribution of [Hgwmsw-Hgwmodf](m)
 0.00000  1e-5   1e-4   1e-3   1e-2   0.5  1-1e-2 1-1e-3 1-1e-4 1-1e-5 1.00000
 -0.012 -0.011 -0.004  0.000  0.000  0.000  0.000  0.002  0.010  0.026  0.065
 
   msw1postfm_sc1_begin, k =       1
   msw1postfm_sc1_end  , k =  183388

 msw1postfm_qmodf_begin, k =       1
 msw1postfm_qmodf_end  , k =  183388
 
 iter_outer =  8 : [Hgwmsw - Hgwmodf] (svat=  70837)= -0.01023 m
 iter_outer =  8 : [Hgwmsw - Hgwmodf] (svat= 130475)=  0.04720 m
 

 Cumulative relative frequency distribution of [Hgwmsw-Hgwmodf](m)
 0.00000  1e-5   1e-4   1e-3   1e-2   0.5  1-1e-2 1-1e-3 1-1e-4 1-1e-5 1.00000
 -0.009 -0.007 -0.002  0.000  0.000  0.000  0.000  0.001  0.002  0.019  0.047
 
   msw1postfm_sc1_begin, k =       1
   msw1postfm_sc1_end  , k =  183388

 msw1postfm_qmodf_begin, k =       1
 msw1postfm_qmodf_end  , k =  183388
 
 iter_outer =  9 : [Hgwmsw - Hgwmodf] (svat=    679)= -0.00267 m
 iter_outer =  9 : [Hgwmsw - Hgwmodf] (svat= 130475)=  0.03080 m
 

 Cumulative relative frequency distribution of [Hgwmsw-Hgwmodf](m)
 0.00000  1e-5   1e-4   1e-3   1e-2   0.5  1-1e-2 1-1e-3 1-1e-4 1-1e-5 1.00000
 -0.002 -0.001  0.000  0.000  0.000  0.000  0.000  0.001  0.004  0.018  0.031
 
   msw1postfm_sc1_begin, k =       1
   msw1postfm_sc1_end  , k =  183388

 msw1postfm_qmodf_begin, k =       1
 msw1postfm_qmodf_end  , k =  183388
 
 iter_outer = 10 : [Hgwmsw - Hgwmodf] (svat=  69858)= -0.00604 m
 iter_outer = 10 : [Hgwmsw - Hgwmodf] (svat=  19333)=  0.01597 m
 

 Cumulative relative frequency distribution of [Hgwmsw-Hgwmodf](m)
 0.00000  1e-5   1e-4   1e-3   1e-2   0.5  1-1e-2 1-1e-3 1-1e-4 1-1e-5 1.00000
 -0.005 -0.005 -0.001  0.000  0.000  0.000  0.000  0.000  0.001  0.015  0.016
 
   msw1postfm_sc1_begin, k =       1
   msw1postfm_sc1_end  , k =  183388

 msw1postfm_qmodf_begin, k =       1
 msw1postfm_qmodf_end  , k =  183388
 
 iter_outer = 11 : [Hgwmsw - Hgwmodf] (svat= 120857)= -0.00191 m
 iter_outer = 11 : [Hgwmsw - Hgwmodf] (svat=  19333)=  0.01474 m
 

 Cumulative relative frequency distribution of [Hgwmsw-Hgwmodf](m)
 0.00000  1e-5   1e-4   1e-3   1e-2   0.5  1-1e-2 1-1e-3 1-1e-4 1-1e-5 1.00000
 -0.001 -0.001  0.000  0.000  0.000  0.000  0.000  0.000  0.002  0.014  0.015
 
   msw1postfm_sc1_begin, k =       1
   msw1postfm_sc1_end  , k =  183388

 msw1postfm_qmodf_begin, k =       1
 msw1postfm_qmodf_end  , k =  183388
 
 iter_outer = 12 : [Hgwmsw - Hgwmodf] (svat=  70838)= -0.00287 m
 iter_outer = 12 : [Hgwmsw - Hgwmodf] (svat= 125671)=  0.01269 m
 

 Cumulative relative frequency distribution of [Hgwmsw-Hgwmodf](m)
 0.00000  1e-5   1e-4   1e-3   1e-2   0.5  1-1e-2 1-1e-3 1-1e-4 1-1e-5 1.00000
 -0.002 -0.002  0.000  0.000  0.000  0.000  0.000  0.000  0.000  0.012  0.013
 
   msw1postfm_sc1_begin, k =       1
   msw1postfm_sc1_end  , k =  183388

 msw1postfm_qmodf_begin, k =       1
 msw1postfm_qmodf_end  , k =  183388
 
 iter_outer = 13 : [Hgwmsw - Hgwmodf] (svat=  47062)= -0.00033 m
 iter_outer = 13 : [Hgwmsw - Hgwmodf] (svat= 125671)=  0.01202 m
 

 Cumulative relative frequency distribution of [Hgwmsw-Hgwmodf](m)
 0.00000  1e-5   1e-4   1e-3   1e-2   0.5  1-1e-2 1-1e-3 1-1e-4 1-1e-5 1.00000
  0.000  0.000  0.000  0.000  0.000  0.000  0.000  0.000  0.001  0.011  0.012
 
   msw1postfm_sc1_begin, k =       1
   msw1postfm_sc1_end  , k =  183388

 msw1postfm_qmodf_begin, k =       1
 msw1postfm_qmodf_end  , k =  183388
 
 iter_outer = 14 : [Hgwmsw - Hgwmodf] (svat=  70838)= -0.00105 m
 iter_outer = 14 : [Hgwmsw - Hgwmodf] (svat= 125671)=  0.01136 m
 

 Cumulative relative frequency distribution of [Hgwmsw-Hgwmodf](m)
 0.00000  1e-5   1e-4   1e-3   1e-2   0.5  1-1e-2 1-1e-3 1-1e-4 1-1e-5 1.00000
  0.000  0.000  0.000  0.000  0.000  0.000  0.000  0.000  0.000  0.011  0.011
 
   msw1postfm_sc1_begin, k =       1
   msw1postfm_sc1_end  , k =  183388

 msw1postfm_qmodf_begin, k =       1
 msw1postfm_qmodf_end  , k =  183388
 
 iter_outer = 15 : [Hgwmsw - Hgwmodf] (svat=  50192)= -0.00065 m
 iter_outer = 15 : [Hgwmsw - Hgwmodf] (svat=  19333)=  0.01197 m
 

 Cumulative relative frequency distribution of [Hgwmsw-Hgwmodf](m)
 0.00000  1e-5   1e-4   1e-3   1e-2   0.5  1-1e-2 1-1e-3 1-1e-4 1-1e-5 1.00000
  0.000  0.000  0.000  0.000  0.000  0.000  0.000  0.000  0.000  0.011  0.012
 
   msw1postfm_sc1_begin, k =       1
   msw1postfm_sc1_end  , k =  183388

 msw1postfm_qmodf_begin, k =       1
 msw1postfm_qmodf_end  , k =  183388
 
 iter_outer = 16 : [Hgwmsw - Hgwmodf] (svat=  70838)= -0.00117 m
 iter_outer = 16 : [Hgwmsw - Hgwmodf] (svat=  19333)=  0.01104 m
 

 Cumulative relative frequency distribution of [Hgwmsw-Hgwmodf](m)
 0.00000  1e-5   1e-4   1e-3   1e-2   0.5  1-1e-2 1-1e-3 1-1e-4 1-1e-5 1.00000
  0.000  0.000  0.000  0.000  0.000  0.000  0.000  0.000  0.000  0.010  0.011
 
   msw1postfm_sc1_begin, k =       1
   msw1postfm_sc1_end  , k =  183388

 msw1postfm_qmodf_begin, k =       1
 msw1postfm_qmodf_end  , k =  183388
 
 iter_outer = 17 : [Hgwmsw - Hgwmodf] (svat=  50192)= -0.00008 m
 iter_outer = 17 : [Hgwmsw - Hgwmodf] (svat=  19333)=  0.01023 m
 

 Cumulative relative frequency distribution of [Hgwmsw-Hgwmodf](m)
 0.00000  1e-5   1e-4   1e-3   1e-2   0.5  1-1e-2 1-1e-3 1-1e-4 1-1e-5 1.00000
  0.000  0.000  0.000  0.000  0.000  0.000  0.000  0.000  0.000  0.009  0.010
 
   msw1postfm_sc1_begin, k =       1
   msw1postfm_sc1_end  , k =  183388

 msw1postfm_qmodf_begin, k =       1
 msw1postfm_qmodf_end  , k =  183388
 
 iter_outer = 18 : [Hgwmsw - Hgwmodf] (svat=  70349)= -0.00066 m
 iter_outer = 18 : [Hgwmsw - Hgwmodf] (svat= 125671)=  0.00883 m
 

 Cumulative relative frequency distribution of [Hgwmsw-Hgwmodf](m)
 0.00000  1e-5   1e-4   1e-3   1e-2   0.5  1-1e-2 1-1e-3 1-1e-4 1-1e-5 1.00000
  0.000  0.000  0.000  0.000  0.000  0.000  0.000  0.000  0.000  0.007  0.009
 
   msw1postfm_sc1_begin, k =       1
   msw1postfm_sc1_end  , k =  183388

 msw1postfm_qmodf_begin, k =       1
 msw1postfm_qmodf_end  , k =  183388
 
 iter_outer = 19 : [Hgwmsw - Hgwmodf] (svat=  12734)= -0.00041 m
 iter_outer = 19 : [Hgwmsw - Hgwmodf] (svat= 125671)=  0.00845 m
 

 Cumulative relative frequency distribution of [Hgwmsw-Hgwmodf](m)
 0.00000  1e-5   1e-4   1e-3   1e-2   0.5  1-1e-2 1-1e-3 1-1e-4 1-1e-5 1.00000
  0.000  0.000  0.000  0.000  0.000  0.000  0.000  0.000  0.000  0.007  0.008
 
   msw1postfm_sc1_begin, k =       1
   msw1postfm_sc1_end  , k =  183388

 msw1postfm_qmodf_begin, k =       1
 msw1postfm_qmodf_end  , k =  183388
 
 iter_outer = 20 : [Hgwmsw - Hgwmodf] (svat=  12734)= -0.00013 m
 iter_outer = 20 : [Hgwmsw - Hgwmodf] (svat= 125671)=  0.00806 m
 

 Cumulative relative frequency distribution of [Hgwmsw-Hgwmodf](m)
 0.00000  1e-5   1e-4   1e-3   1e-2   0.5  1-1e-2 1-1e-3 1-1e-4 1-1e-5 1.00000
  0.000  0.000  0.000  0.000  0.000  0.000  0.000  0.000  0.000  0.007  0.008
 

 Smallest phreatic storage coefficient: sc1( 150810)= 0.01000 (m3/m2/m)
 
MODFLOW_end
 
MetaSWAP_finalize&write_begin,tiac =     1.00
msw1bd_begin,   k =       1
 max. water loss,     vcr(  33569)=  -0.00000 m3/m2
 max. water creation, vcr(   6489)=   0.00000 m3/m2
msw1bd_end,     k =  183388
MetaSWAP_finalize&write_end, tiac =     1.00
MetaSWAP_rootzone_update_begin
MetaSWAP_rootzone_update_end  
 
MODFLOW_begin
    Solving:  Stress period:     2    Time step:     1
MODFLOW_end
 
MetaSWAP_begin, tiac =     1.00
>> DO idtsw=1,nudtsw
     msw1top
MetaSWAP_dtsw_begin, tiac =     1.00
 Reading file C:\OD\WS_Mdl\models\NBr\In\CAP\P\NBr1\P_20100103_NBr1.asc 
 Reading file C:\OD\WS_Mdl\models\NBr\In\CAP\PET\NBr1\PET_20100103_NBr1.asc 
 msw1top_begin, k =       1
 msw1top_end,   k =  183388
MetaSWAP_dtsw_end,   tiac =     2.00
<< ENDDO
MetaSWAP_end, tiac =     2.00
 
MODFLOW_begin
 msw1unsa_begin, k        1
 msw1unsa_end,   k   183388
 msw1postfm_qmodf_begin, k =       1
 msw1postfm_qmodf_end  , k =  183388
 
 iter_outer =  1 : [Hgwmsw - Hgwmodf] (svat=  21244)= -0.21692 m
 iter_outer =  1 : [Hgwmsw - Hgwmodf] (svat=   4803)=  0.13837 m
 

 Cumulative relative frequency distribution of [Hgwmsw-Hgwmodf](m)
 0.00000  1e-5   1e-4   1e-3   1e-2   0.5  1-1e-2 1-1e-3 1-1e-4 1-1e-5 1.00000
 -0.216 -0.077 -0.048 -0.023 -0.005  0.000  0.002  0.044  0.080  0.110  0.138
 
   msw1postfm_sc1_begin, k =       1
   msw1postfm_sc1_end  , k =  183388

 msw1postfm_qmodf_begin, k =       1
 msw1postfm_qmodf_end  , k =  183388
 
 iter_outer =  2 : [Hgwmsw - Hgwmodf] (svat=  21243)= -0.04850 m
 iter_outer =  2 : [Hgwmsw - Hgwmodf] (svat=  71081)=  0.04505 m
 

 Cumulative relative frequency distribution of [Hgwmsw-Hgwmodf](m)
 0.00000  1e-5   1e-4   1e-3   1e-2   0.5  1-1e-2 1-1e-3 1-1e-4 1-1e-5 1.00000
 -0.047 -0.041 -0.012 -0.004  0.000  0.000  0.002  0.012  0.030  0.041  0.045
 
   msw1postfm_sc1_begin, k =       1
   msw1postfm_sc1_end  , k =  183388

 msw1postfm_qmodf_begin, k =       1
 msw1postfm_qmodf_end  , k =  183388
 
 iter_outer =  3 : [Hgwmsw - Hgwmodf] (svat=  21243)= -0.03456 m
 iter_outer =  3 : [Hgwmsw - Hgwmodf] (svat=  66709)=  0.01933 m
 

 Cumulative relative frequency distribution of [Hgwmsw-Hgwmodf](m)
 0.00000  1e-5   1e-4   1e-3   1e-2   0.5  1-1e-2 1-1e-3 1-1e-4 1-1e-5 1.00000
 -0.034 -0.016 -0.007 -0.002  0.000  0.000  0.001  0.002  0.009  0.015  0.019
 
   msw1postfm_sc1_begin, k =       1
   msw1postfm_sc1_end  , k =  183388

 msw1postfm_qmodf_begin, k =       1
 msw1postfm_qmodf_end  , k =  183388
 
 iter_outer =  4 : [Hgwmsw - Hgwmodf] (svat=  21243)= -0.02381 m
 iter_outer =  4 : [Hgwmsw - Hgwmodf] (svat=   5909)=  0.01334 m
 

 Cumulative relative frequency distribution of [Hgwmsw-Hgwmodf](m)
 0.00000  1e-5   1e-4   1e-3   1e-2   0.5  1-1e-2 1-1e-3 1-1e-4 1-1e-5 1.00000
 -0.023 -0.014 -0.005 -0.001  0.000  0.000  0.000  0.003  0.007  0.013  0.013
 
   msw1postfm_sc1_begin, k =       1
   msw1postfm_sc1_end  , k =  183388

 msw1postfm_qmodf_begin, k =       1
 msw1postfm_qmodf_end  , k =  183388
 
 iter_outer =  5 : [Hgwmsw - Hgwmodf] (svat=  21243)= -0.02179 m
 iter_outer =  5 : [Hgwmsw - Hgwmodf] (svat=   5909)=  0.01283 m
 

 Cumulative relative frequency distribution of [Hgwmsw-Hgwmodf](m)
 0.00000  1e-5   1e-4   1e-3   1e-2   0.5  1-1e-2 1-1e-3 1-1e-4 1-1e-5 1.00000
 -0.021 -0.012 -0.005 -0.001  0.000  0.000  0.000  0.002  0.005  0.011  0.013
 
   msw1postfm_sc1_begin, k =       1
   msw1postfm_sc1_end  , k =  183388

 msw1postfm_qmodf_begin, k =       1
 msw1postfm_qmodf_end  , k =  183388
 
 iter_outer =  6 : [Hgwmsw - Hgwmodf] (svat=  21243)= -0.02311 m
 iter_outer =  6 : [Hgwmsw - Hgwmodf] (svat=  91791)=  0.01621 m
 

 Cumulative relative frequency distribution of [Hgwmsw-Hgwmodf](m)
 0.00000  1e-5   1e-4   1e-3   1e-2   0.5  1-1e-2 1-1e-3 1-1e-4 1-1e-5 1.00000
 -0.022 -0.013 -0.005 -0.001  0.000  0.000  0.000  0.002  0.006  0.013  0.016
 
   msw1postfm_sc1_begin, k =       1
   msw1postfm_sc1_end  , k =  183388

 msw1postfm_qmodf_begin, k =       1
 msw1postfm_qmodf_end  , k =  183388
 
 iter_outer =  7 : [Hgwmsw - Hgwmodf] (svat=  21243)= -0.02290 m
 iter_outer =  7 : [Hgwmsw - Hgwmodf] (svat=  91791)=  0.01581 m
 

 Cumulative relative frequency distribution of [Hgwmsw-Hgwmodf](m)
 0.00000  1e-5   1e-4   1e-3   1e-2   0.5  1-1e-2 1-1e-3 1-1e-4 1-1e-5 1.00000
 -0.022 -0.013 -0.005 -0.001  0.000  0.000  0.000  0.002  0.006  0.013  0.016
 
   msw1postfm_sc1_begin, k =       1
   msw1postfm_sc1_end  , k =  183388

 msw1postfm_qmodf_begin, k =       1
 msw1postfm_qmodf_end  , k =  183388
 
 iter_outer =  8 : [Hgwmsw - Hgwmodf] (svat=  21243)= -0.02313 m
 iter_outer =  8 : [Hgwmsw - Hgwmodf] (svat=  91791)=  0.01774 m
 

 Cumulative relative frequency distribution of [Hgwmsw-Hgwmodf](m)
 0.00000  1e-5   1e-4   1e-3   1e-2   0.5  1-1e-2 1-1e-3 1-1e-4 1-1e-5 1.00000
 -0.022 -0.013 -0.005 -0.001  0.000  0.000  0.000  0.002  0.006  0.013  0.018
 
   msw1postfm_sc1_begin, k =       1
   msw1postfm_sc1_end  , k =  183388

 msw1postfm_qmodf_begin, k =       1
 msw1postfm_qmodf_end  , k =  183388
 
 iter_outer =  9 : [Hgwmsw - Hgwmodf] (svat=  21243)= -0.02314 m
 iter_outer =  9 : [Hgwmsw - Hgwmodf] (svat=  91791)=  0.01765 m
 

 Cumulative relative frequency distribution of [Hgwmsw-Hgwmodf](m)
 0.00000  1e-5   1e-4   1e-3   1e-2   0.5  1-1e-2 1-1e-3 1-1e-4 1-1e-5 1.00000
 -0.022 -0.013 -0.005 -0.001  0.000  0.000  0.000  0.002  0.006  0.013  0.018
 
   msw1postfm_sc1_begin, k =       1
   msw1postfm_sc1_end  , k =  183388

 msw1postfm_qmodf_begin, k =       1
 msw1postfm_qmodf_end  , k =  183388
 
 iter_outer = 10 : [Hgwmsw - Hgwmodf] (svat=  21243)= -0.02317 m
 iter_outer = 10 : [Hgwmsw - Hgwmodf] (svat=  91791)=  0.01841 m
 

 Cumulative relative frequency distribution of [Hgwmsw-Hgwmodf](m)
 0.00000  1e-5   1e-4   1e-3   1e-2   0.5  1-1e-2 1-1e-3 1-1e-4 1-1e-5 1.00000
 -0.022 -0.013 -0.005 -0.001  0.000  0.000  0.000  0.002  0.006  0.013  0.018
 
   msw1postfm_sc1_begin, k =       1
   msw1postfm_sc1_end  , k =  183388

 msw1postfm_qmodf_begin, k =       1
 msw1postfm_qmodf_end  , k =  183388
 
 iter_outer = 11 : [Hgwmsw - Hgwmodf] (svat=  21243)= -0.02321 m
 iter_outer = 11 : [Hgwmsw - Hgwmodf] (svat=  91791)=  0.01920 m
 

 Cumulative relative frequency distribution of [Hgwmsw-Hgwmodf](m)
 0.00000  1e-5   1e-4   1e-3   1e-2   0.5  1-1e-2 1-1e-3 1-1e-4 1-1e-5 1.00000
 -0.022 -0.013 -0.005 -0.001  0.000  0.000  0.000  0.002  0.006  0.013  0.019
 
   msw1postfm_sc1_begin, k =       1
   msw1postfm_sc1_end  , k =  183388

 msw1postfm_qmodf_begin, k =       1
 msw1postfm_qmodf_end  , k =  183388
 
 iter_outer = 12 : [Hgwmsw - Hgwmodf] (svat=  21243)= -0.02323 m
 iter_outer = 12 : [Hgwmsw - Hgwmodf] (svat=  91791)=  0.01917 m
 

 Cumulative relative frequency distribution of [Hgwmsw-Hgwmodf](m)
 0.00000  1e-5   1e-4   1e-3   1e-2   0.5  1-1e-2 1-1e-3 1-1e-4 1-1e-5 1.00000
 -0.022 -0.013 -0.005 -0.001  0.000  0.000  0.000  0.002  0.006  0.013  0.019
 

 Smallest phreatic storage coefficient: sc1( 100345)= 0.01000 (m3/m2/m)
 
MODFLOW_end
 
MetaSWAP_finalize&write_begin,tiac =     2.00
msw1bd_begin,   k =       1
 max. water loss,     vcr(  55688)=  -0.00000 m3/m2
 max. water creation, vcr(   7101)=   0.00000 m3/m2
msw1bd_end,     k =  183388
 msw1sav_begin
 msw1sav_end
MetaSWAP_finalize&write_end, tiac =     2.00
MetaSWAP_rootzone_update_begin
MetaSWAP_rootzone_update_end  
 
MODFLOW_begin
iMOD Coupler: [1mNew simulation terminated normally[0m
 
 Run end date and time (yyyy/mm/dd hh:mm:ss): 2025/06/19 13:53:02
 Elapsed run time:  2 Minutes, 15.963 Seconds
 
 Normal termination of simulation.
MODFLOW_END
MetaSWAP_begin, tiac =     2.00
 msw1sav_begin
 msw1sav_end

** I28  simgro   **  E N D   O F   M E T A S W A P
                     -----------------------------
 

C:\OD\WS_Mdl\models\NBr\Sim\NBr17>IF 0 NEQ 0 (ECHO AN ERROR WAS FOUND ERRORLEVEL ) 

C:\OD\WS_Mdl\models\NBr\Sim\NBr17>ECHO OFF 
MODFLOW finished, postprocessing started 
=============================================
iMOD Batch Script iMOD V5_6_1
=============================================
FUNCTION=MF6TOIDF

 ==================================================
 Running iMOD: 
  exe: C:\OD\WS_Mdl\software\iMOD5\iMOD_V5_6_1.exe
  dir: C:\OD\WS_Mdl\models\NBr\Sim\NBr17
 ==================================================


EXECUTING FUNCTION >>> MF6TOIDF <<<


iMODBATCH using tmp-folder:
  C:\OD\WS_Mdl\models\NBr\Sim\NBr17\IMOD_TMP\BATCH1

SDATE=20100101000000
ISAVEENDDATE=0
DATEFORMAT=1
IFILLHEAD=0
SAVESHD=1,2,3,4,5,6,7,8,9,10,11,12,13,14,15,16,17,18,19,20,21,22,23,24,25,26,27,28,29,30,31,32,33,34,35,36,37
SAVEWEL=1
SAVEDRN=1
SAVEFLX=1
GRB=.\GWF_1\MODELINPUT\NBr17.DIS6.GRB
HED=.\GWF_1\MODELOUTPUT\HEAD\HEAD.HED
 Processing HEAD_20100101000000_L1 ...
 Processing HEAD_20100101000000_L2 ...
 Processing HEAD_20100101000000_L3 ...
 Processing HEAD_20100101000000_L4 ...
 Processing HEAD_20100101000000_L5 ...
 Processing HEAD_20100101000000_L6 ...
 Processing HEAD_20100101000000_L7 ...
 Processing HEAD_20100101000000_L8 ...
 Processing HEAD_20100101000000_L9 ...
 Processing HEAD_20100101000000_L10 ...
 Processing HEAD_20100101000000_L11 ...
 Processing HEAD_20100101000000_L12 ...
 Processing HEAD_20100101000000_L13 ...
 Processing HEAD_20100101000000_L14 ...
 Processing HEAD_20100101000000_L15 ...
 Processing HEAD_20100101000000_L16 ...
 Processing HEAD_20100101000000_L17 ...
 Processing HEAD_20100101000000_L18 ...
 Processing HEAD_20100101000000_L19 ...
 Processing HEAD_20100101000000_L20 ...
 Processing HEAD_20100101000000_L21 ...
 Processing HEAD_20100101000000_L22 ...
 Processing HEAD_20100101000000_L23 ...
 Processing HEAD_20100101000000_L24 ...
 Processing HEAD_20100101000000_L25 ...
 Processing HEAD_20100101000000_L26 ...
 Processing HEAD_20100101000000_L27 ...
 Processing HEAD_20100101000000_L28 ...
 Processing HEAD_20100101000000_L29 ...
 Processing HEAD_20100101000000_L30 ...
 Processing HEAD_20100101000000_L31 ...
 Processing HEAD_20100101000000_L32 ...
 Processing HEAD_20100101000000_L33 ...
 Processing HEAD_20100101000000_L34 ...
 Processing HEAD_20100101000000_L35 ...
 Processing HEAD_20100101000000_L36 ...
 Processing HEAD_20100101000000_L37 ...
 Processing HEAD_20100102000000_L1 ...
 Processing HEAD_20100102000000_L2 ...
 Processing HEAD_20100102000000_L3 ...
 Processing HEAD_20100102000000_L4 ...
 Processing HEAD_20100102000000_L5 ...
 Processing HEAD_20100102000000_L6 ...
 Processing HEAD_20100102000000_L7 ...
 Processing HEAD_20100102000000_L8 ...
 Processing HEAD_20100102000000_L9 ...
 Processing HEAD_20100102000000_L10 ...
 Processing HEAD_20100102000000_L11 ...
 Processing HEAD_20100102000000_L12 ...
 Processing HEAD_20100102000000_L13 ...
 Processing HEAD_20100102000000_L14 ...
 Processing HEAD_20100102000000_L15 ...
 Processing HEAD_20100102000000_L16 ...
 Processing HEAD_20100102000000_L17 ...
 Processing HEAD_20100102000000_L18 ...
 Processing HEAD_20100102000000_L19 ...
 Processing HEAD_20100102000000_L20 ...
 Processing HEAD_20100102000000_L21 ...
 Processing HEAD_20100102000000_L22 ...
 Processing HEAD_20100102000000_L23 ...
 Processing HEAD_20100102000000_L24 ...
 Processing HEAD_20100102000000_L25 ...
 Processing HEAD_20100102000000_L26 ...
 Processing HEAD_20100102000000_L27 ...
 Processing HEAD_20100102000000_L28 ...
 Processing HEAD_20100102000000_L29 ...
 Processing HEAD_20100102000000_L30 ...
 Processing HEAD_20100102000000_L31 ...
 Processing HEAD_20100102000000_L32 ...
 Processing HEAD_20100102000000_L33 ...
 Processing HEAD_20100102000000_L34 ...
 Processing HEAD_20100102000000_L35 ...
 Processing HEAD_20100102000000_L36 ...
 Processing HEAD_20100102000000_L37 ...
BDG=.\GWF_1\MODELOUTPUT\BUDGET\BUDGET.CBC
 Processing FLOW-JA-FACE_20100101000000_L* ...
 Processing WEL_20100101000000_L* ...
 Processing DRN_20100101000000_L* ...
 Processing FLOW-JA-FACE_20100102000000_L* ...
 Processing WEL_20100102000000_L* ...
 Processing DRN_20100102000000_L* ...

iMOD removed tmp-folder:
  C:\OD\WS_Mdl\models\NBr\Sim\NBr17\IMOD_TMP\BATCH1

[Thu Jun 19 13:53:23 2025]
Finished jobid: 1 (Rule: Sim)
5 of 9 steps (56%) done
Select jobs to execute...
Execute 2 jobs...

[Thu Jun 19 13:53:23 2025]
localrule GXG:
    input: C:/OD/WS_Mdl/models/NBr/code/snakemake/temp/Log_Sim_done_NBr17
    output: C:/OD/WS_Mdl/models/NBr/code/snakemake/temp/Log_GXG_done_NBr17
    jobid: 8
    reason: Missing output files: C:/OD/WS_Mdl/models/NBr/code/snakemake/temp/Log_GXG_done_NBr17; Input files updated by another job: C:/OD/WS_Mdl/models/NBr/code/snakemake/temp/Log_Sim_done_NBr17
    resources: tmpdir=C:\Users\Karam014\AppData\Local\Temp
Shell command: None

[Thu Jun 19 13:53:23 2025]
localrule PRJ_to_TIF:
    input: C:/OD/WS_Mdl/models/NBr/code/snakemake/temp/Log_Sim_done_NBr17
    output: C:/OD/WS_Mdl/models/NBr/code/snakemake/temp/Log_PRJ_to_TIF_done_NBr17
    jobid: 7
    reason: Missing output files: C:/OD/WS_Mdl/models/NBr/code/snakemake/temp/Log_PRJ_to_TIF_done_NBr17; Input files updated by another job: C:/OD/WS_Mdl/models/NBr/code/snakemake/temp/Log_Sim_done_NBr17
    resources: tmpdir=C:\Users\Karam014\AppData\Local\Temp
Shell command: None
[Thu Jun 19 13:53:45 2025]
Finished jobid: 8 (Rule: GXG)
6 of 9 steps (67%) done
[Thu Jun 19 13:53:56 2025]
Finished jobid: 7 (Rule: PRJ_to_TIF)
7 of 9 steps (78%) done
Select jobs to execute...
Execute 1 jobs...

[Thu Jun 19 13:53:56 2025]
localrule Up_MM:
    input: C:/OD/WS_Mdl/models/NBr/code/snakemake/temp/Log_PRJ_to_TIF_done_NBr17, C:/OD/WS_Mdl/models/NBr/code/snakemake/temp/Log_GXG_done_NBr17
    output: C:/OD/WS_Mdl/models/NBr/code/snakemake/temp/Log_Up_MM_done_NBr17
    jobid: 6
    reason: Missing output files: C:/OD/WS_Mdl/models/NBr/code/snakemake/temp/Log_Up_MM_done_NBr17; Input files updated by another job: C:/OD/WS_Mdl/models/NBr/code/snakemake/temp/Log_PRJ_to_TIF_done_NBr17, C:/OD/WS_Mdl/models/NBr/code/snakemake/temp/Log_GXG_done_NBr17
    resources: tmpdir=C:\Users\Karam014\AppData\Local\Temp
Shell command: None
[Thu Jun 19 13:54:03 2025]
Finished jobid: 6 (Rule: Up_MM)
8 of 9 steps (89%) done
Removing temporary output C:/OD/WS_Mdl/models/NBr/code/snakemake/temp/Log_PRJ_to_TIF_done_NBr17.
Removing temporary output C:/OD/WS_Mdl/models/NBr/code/snakemake/temp/Log_GXG_done_NBr17.
Select jobs to execute...
Execute 1 jobs...

[Thu Jun 19 13:54:03 2025]
localrule all:
    input: C:/OD/WS_Mdl/models/NBr/code/snakemake/temp/Log_Sim_done_NBr17, C:/OD/WS_Mdl/models/NBr/code/snakemake/temp/Log_Up_MM_done_NBr17
    jobid: 0
    reason: Input files updated by another job: C:/OD/WS_Mdl/models/NBr/code/snakemake/temp/Log_Sim_done_NBr17, C:/OD/WS_Mdl/models/NBr/code/snakemake/temp/Log_Up_MM_done_NBr17
    resources: tmpdir=C:\Users\Karam014\AppData\Local\Temp
Shell command: None
[Thu Jun 19 13:54:03 2025]
Finished jobid: 0 (Rule: all)
9 of 9 steps (100%) done
Complete log(s): C:\OD\WS_Mdl\models\NBr\.snakemake\log\2025-06-19T134919.290099.snakemake.log
🟢 - INI file C:/OD/WS_Mdl\models/NBr\code/Mdl_Prep/Mdl_Prep_NBr17.ini read successfully. Dictionary created with 21 keys.
********************************************************************************


Running add_OBS ...
🟢 - INI file C:/OD/WS_Mdl\models/NBr\code/Mdl_Prep/Mdl_Prep_NBr17.ini read successfully. Dictionary created with 21 keys.
🟢 - IPF file C:\OD\WS_Mdl\models\NBr\In\OBS\NBr8\ijkset_selectie_NBr8.ipf read successfully. DataFrame created with 9678 rows and 11 columns.
🟢 - C:/OD/WS_Mdl\models/NBr\Sim/NBr17\GWF_1/MODELINPUT/NBr17.OBS6 has been added successfully!

end_of_transmission
********************************************************************************

********************************************************************************


*** NBr17 *** - HD_IDF_GXG_to_TIF

🟢 - INI file C:/OD/WS_Mdl\models/NBr\code/Mdl_Prep/Mdl_Prep_NBr17.ini read successfully. Dictionary created with 21 keys.
🟢 - model dimensions extracted from C:/OD/WS_Mdl\models/NBr\code/Mdl_Prep/Mdl_Prep_NBr17.ini.
	 L1 🟢 - Elapsed time (from start): 0:00:06.299471
🟢🟢🟢 | Total elapsed: 0:00:07.319442

end_of_transmission
********************************************************************************

 --- Reading PRJ Packages into DF ---
	(cap)  	...	🟢
	extra  	...	❌
	(bnd)  	...	🟢
	(top)  	...	🟢
	(bot)  	...	🟢
	(khv)  	...	🟢
	(kva)  	...	🟢
	(shd)  	...	🟢
	(sto)  	...	🟢
	(spy)  	...	🟢
	(hfb)  	...	🟢
	(drn)  	...	🟢
	(wel)  	...	🟢
	(pcg)  	...	❌
	(chd)  	...	🟢
	periods	...	❌
	species	...	❌
 --- Success! ---
 ----------------------------------------------------------------------------------------------------

 --- Converting time-independant package IDF files to TIF ---
	0 , boundary                       ... ❌ - CAP_boundary_NBr1.tif already exists. Skipping.
	1 , landuse                        ... ❌ - CAP_landuse_NBr1.tif already exists. Skipping.
	2 , rootzone_thickness             ... ❌ - CAP_rootzone_thickness_NBr1.tif already exists. Skipping.
	3 , soil_physical_unit             ... ❌ - CAP_soil_physical_unit_NBr1.tif already exists. Skipping.
	4 , meteo_station_number           ... ❌ - CAP_meteo_station_number_NBr1.tif already exists. Skipping.
	5 , surface_elevation              ... ❌ - CAP_surface_elevation_NBr1.tif already exists. Skipping.
	6 , artificial_recharge            ... ❌ - CAP_artificial_recharge_NBr1.tif already exists. Skipping.
	7 , artificial_recharge_layer      ... ❌ - CAP_artificial_recharge_layer_NBr1.tif already exists. Skipping.
	8 , wetted_area                    ... ❌ - CAP_wetted_area_NBr1.tif already exists. Skipping.
	9 , urban_area                     ... ❌ - CAP_urban_area_NBr1.tif already exists. Skipping.
	10, ibound                         ... ❌ - BND_ibound_NBr1.tif already exists. Skipping.
	11, top                            ... ❌ - TOP_top_NBr1.tif already exists. Skipping.
	12, bottom                         ... ❌ - BOT_bottom_NBr1.tif already exists. Skipping.
	13, kh                             ... ❌ - KHV_kh_NBr1.tif already exists. Skipping.
	14, head                           ... ❌ - SHD_head_NBr8.tif already exists. Skipping.

 --- Converting time dependant packages ---
	DRN_conductance                ... ❌ - DRN_Cond_buis_NBr1.tif already exists. Skipping.
	DRN_conductance                ... ❌ - DRN_Cond_MV_25M_MODEL_NBr1.tif already exists. Skipping.
	DRN_conductance                ... ❌ - DRN_Cond_ONTWATERING_BELGIE_NBr1.tif already exists. Skipping.
	DRN_conductance                ... ❌ - DRN_Cond_buis_NBr1.tif already exists. Skipping.
	DRN_conductance                ... ❌ - DRN_Cond_MV_25M_MODEL_NBr1.tif already exists. Skipping.
	DRN_conductance                ... ❌ - DRN_Cond_ONTWATERING_BELGIE_NBr1.tif already exists. Skipping.
	DRN_elevation                  ... ❌ - DRN_Elv_buis_NBr1.tif already exists. Skipping.
	DRN_elevation                  ... ❌ - DRN_Elv_MV_25M_NBr1.tif already exists. Skipping.
	DRN_elevation                  ... ❌ - DRN_Elv_BELGIE_NBr1.tif already exists. Skipping.
	DRN_elevation                  ... ❌ - DRN_Elv_buis_NBr1.tif already exists. Skipping.
	DRN_elevation                  ... ❌ - DRN_Elv_MV_25M_NBr1.tif already exists. Skipping.
	DRN_elevation                  ... ❌ - DRN_Elv_BELGIE_NBr1.tif already exists. Skipping.
	WEL_Ind_Aa_and_Maas_T_NBr1.ipf ... ❌ - file WEL_Ind_Aa_and_Maas_T_NBr1.gpkg exists. Skipping.
	WEL_Ind_Br_T_NBr1.ipf          ... ❌ - file WEL_Ind_Br_T_NBr1.gpkg exists. Skipping.
	WEL_Br_Wa_T_NBr1.ipf           ... ❌ - file WEL_Br_Wa_T_NBr1.gpkg exists. Skipping.
 --- Converting calculated inputs to TIF ---
	thickness                      ... ❌ - Thk_NBr1.tif already exists. Skipping.
	transmissivity                 ... ❌ - T_NBr1.tif already exists. Skipping.

end_of_transmission
********************************************************************************

********************************************************************************


 *****   Creating MM for NBr17   ***** 
Copied QGIS project from C:/OD/WS_Mdl\models/NBr\PoP\Out\NBr16\MM-NBr16.qgz to C:/OD/WS_Mdl\models/NBr\PoP\Out\NBr17\MM-NBr17.qgz.
Updating layer path ...

🟢🟢🟢 | MM for NBr17 has been updated.

end_of_transmission
********************************************************************************

