Assuming unrestricted shared filesystem usage.
host: UU120516
Building DAG of jobs...
Provided cores: 10
Rules claiming more threads will be scaled down.
Job stats:
job                 count
----------------  -------
GXG                     1
Mdl_Prep                1
PRJ_to_TIF              1
Sim                     1
Up_MM                   1
add_OBS                 1
add_SFR_OBS_copy        1
add_SFR_copy            1
all                     1
log_Init                1
total                  10

Select jobs to execute...
Execute 1 jobs...

[Thu Jul  3 16:20:54 2025]
localrule log_Init:
    output: C:/OD/WS_Mdl/models/NBr/code/snakemake/temp/Log_init_done_NBr26
    jobid: 4
    reason: Missing output files: C:/OD/WS_Mdl/models/NBr/code/snakemake/temp/Log_init_done_NBr26
    resources: tmpdir=C:\Users\Karam014\AppData\Local\Temp
Shell command: None
[Thu Jul  3 16:20:56 2025]
Finished jobid: 4 (Rule: log_Init)
1 of 10 steps (10%) done
Select jobs to execute...
Execute 1 jobs...

[Thu Jul  3 16:20:56 2025]
localrule Mdl_Prep:
    input: C:/OD/WS_Mdl/models/NBr/code/snakemake/temp/Log_init_done_NBr26, code/Mdl_Prep/Mdl_Prep_NBr26.bat, code/Mdl_Prep/Mdl_Prep_NBr26.ini, In/PRJ/NBr26.prj
    output: C:/OD/WS_Mdl/models/NBr/Sim/NBr26/RUN.BAT
    jobid: 3
    reason: Missing output files: C:/OD/WS_Mdl/models/NBr/Sim/NBr26/RUN.BAT; Input files updated by another job: C:/OD/WS_Mdl/models/NBr/code/snakemake/temp/Log_init_done_NBr26
    resources: tmpdir=C:\Users\Karam014\AppData\Local\Temp
Shell command: call code/Mdl_Prep/Mdl_Prep_NBr26.bat

 ==================================================
 Running iMOD: 
  exe: C:\OD\WS_Mdl\software\iMOD5\iMOD_V5_6_1.exe
  dir: C:\OD\WS_Mdl\models\NBr\code\Mdl_Prep
 ==================================================


EXECUTING FUNCTION >>> RUNFILE <<<


iMODBATCH using tmp-folder:
  C:\OD\WS_Mdl\models\NBr\code\Mdl_Prep\IMOD_TMP\BATCH1

PRJFILE_IN=..\..\In\PRJ\NBr26.prj

Export to MODFLOW6 files

NAMFILE_OUT=..\..\Sim\NBr26\NBr26.nam
WINDOW=     113100.000     387600.000     125100.000     396200.000
CELLSIZE=         25.000
ISS=         1
SDATE=20100101000000
EDATE=20100301000000
ITT=             3
IDT=             1
Time step:     1 days
NSTEP=         1
ISTEADY=         0
SSYSTEM=         1
SAVESHD=-1
SAVEDRN=1
SAVERIV=0
SAVEWEL=1
SAVEFLX=1
PCKACTIVE=0
COUPLER=..\..\..\..\software\iMOD5\bin\iMOD_coupler
ISOLVE=         0

iMOD found model with 37 layers

Reading BND-files (2.70%)      Reading BND-files (5.41%)      Reading BND-files (8.11%)      Reading BND-files (10.81%)      Reading BND-files (13.51%)      Reading BND-files (16.22%)      Reading BND-files (18.92%)      Reading BND-files (21.62%)      Reading BND-files (24.32%)      Reading BND-files (27.03%)      Reading BND-files (29.73%)      Reading BND-files (32.43%)      Reading BND-files (35.14%)      Reading BND-files (37.84%)      Reading BND-files (40.54%)      Reading BND-files (43.24%)      Reading BND-files (45.95%)      Reading BND-files (48.65%)      Reading BND-files (51.35%)      Reading BND-files (54.05%)      Reading BND-files (56.76%)      Reading BND-files (59.46%)      Reading BND-files (62.16%)      Reading BND-files (64.86%)      Reading BND-files (67.57%)      Reading BND-files (70.27%)      Reading BND-files (72.97%)      Reading BND-files (75.68%)      Reading BND-files (78.38%)      Reading BND-files (81.08%)      Reading BND-files (83.78%)      Reading BND-files (86.49%)      Reading BND-files (89.19%)      Reading BND-files (91.89%)      Reading BND-files (94.59%)      Reading BND-files (97.30%)      Reading BND-files (100.00%)      
Modified boundary layer 1 due to submodelling N/S/W/E: 478/478/344/344
Modified boundary layer 2 due to submodelling N/S/W/E: 478/478/344/344
Modified boundary layer 3 due to submodelling N/S/W/E: 478/478/344/344
Modified boundary layer 4 due to submodelling N/S/W/E: 478/478/344/344
Modified boundary layer 5 due to submodelling N/S/W/E: 478/478/344/344
Modified boundary layer 6 due to submodelling N/S/W/E: 478/478/344/344
Modified boundary layer 7 due to submodelling N/S/W/E: 478/478/344/344
Modified boundary layer 8 due to submodelling N/S/W/E: 478/478/344/344
Modified boundary layer 9 due to submodelling N/S/W/E: 478/478/344/344
Modified boundary layer 10 due to submodelling N/S/W/E: 478/478/344/344
Modified boundary layer 11 due to submodelling N/S/W/E: 478/478/344/344
Modified boundary layer 12 due to submodelling N/S/W/E: 478/478/344/344
Modified boundary layer 13 due to submodelling N/S/W/E: 478/478/344/344
Modified boundary layer 14 due to submodelling N/S/W/E: 478/478/344/344
Modified boundary layer 15 due to submodelling N/S/W/E: 478/478/344/344
Modified boundary layer 16 due to submodelling N/S/W/E: 478/478/344/344
Modified boundary layer 17 due to submodelling N/S/W/E: 478/478/344/344
Modified boundary layer 18 due to submodelling N/S/W/E: 478/478/344/344
Modified boundary layer 19 due to submodelling N/S/W/E: 478/478/344/344
Modified boundary layer 20 due to submodelling N/S/W/E: 478/478/344/344
Modified boundary layer 21 due to submodelling N/S/W/E: 478/478/344/344
Modified boundary layer 22 due to submodelling N/S/W/E: 478/478/344/344
Modified boundary layer 23 due to submodelling N/S/W/E: 478/478/344/344
Modified boundary layer 24 due to submodelling N/S/W/E: 478/478/344/344
Modified boundary layer 25 due to submodelling N/S/W/E: 478/478/344/344
Modified boundary layer 26 due to submodelling N/S/W/E: 478/478/344/344
Modified boundary layer 27 due to submodelling N/S/W/E: 478/478/344/344
Modified boundary layer 28 due to submodelling N/S/W/E: 478/478/344/344
Modified boundary layer 29 due to submodelling N/S/W/E: 478/478/344/344
Modified boundary layer 30 due to submodelling N/S/W/E: 478/478/344/344
Modified boundary layer 31 due to submodelling N/S/W/E: 478/478/344/344
Modified boundary layer 32 due to submodelling N/S/W/E: 478/478/344/344
Modified boundary layer 33 due to submodelling N/S/W/E: 478/478/344/344
Modified boundary layer 34 due to submodelling N/S/W/E: 478/478/344/344
Modified boundary layer 35 due to submodelling N/S/W/E: 478/478/344/344
Modified boundary layer 36 due to submodelling N/S/W/E: 478/478/344/344
Modified boundary layer 37 due to submodelling N/S/W/E: 478/478/344/344
Reading SHD-files (2.70%)      Reading SHD-files (5.41%)      Reading SHD-files (8.11%)      Reading SHD-files (10.81%)      Reading SHD-files (13.51%)      Reading SHD-files (16.22%)      Reading SHD-files (18.92%)      Reading SHD-files (21.62%)      Reading SHD-files (24.32%)      Reading SHD-files (27.03%)      Reading SHD-files (29.73%)      Reading SHD-files (32.43%)      Reading SHD-files (35.14%)      Reading SHD-files (37.84%)      Reading SHD-files (40.54%)      Reading SHD-files (43.24%)      Reading SHD-files (45.95%)      Reading SHD-files (48.65%)      Reading SHD-files (51.35%)      Reading SHD-files (54.05%)      Reading SHD-files (56.76%)      Reading SHD-files (59.46%)      Reading SHD-files (62.16%)      Reading SHD-files (64.86%)      Reading SHD-files (67.57%)      Reading SHD-files (70.27%)      Reading SHD-files (72.97%)      Reading SHD-files (75.68%)      Reading SHD-files (78.38%)      Reading SHD-files (81.08%)      Reading SHD-files (83.78%)      Reading SHD-files (86.49%)      Reading SHD-files (89.19%)      Reading SHD-files (91.89%)      Reading SHD-files (94.59%)      Reading SHD-files (97.30%)      Reading SHD-files (100.00%)      Reading TOP/BOT-files (2.70%)      Reading TOP/BOT-files (5.41%)      Reading TOP/BOT-files (8.11%)      Reading TOP/BOT-files (10.81%)      Reading TOP/BOT-files (13.51%)      Reading TOP/BOT-files (16.22%)      Reading TOP/BOT-files (18.92%)      Reading TOP/BOT-files (21.62%)      Reading TOP/BOT-files (24.32%)      Reading TOP/BOT-files (27.03%)      Reading TOP/BOT-files (29.73%)      Reading TOP/BOT-files (32.43%)      Reading TOP/BOT-files (35.14%)      Reading TOP/BOT-files (37.84%)      Reading TOP/BOT-files (40.54%)      Reading TOP/BOT-files (43.24%)      Reading TOP/BOT-files (45.95%)      Reading TOP/BOT-files (48.65%)      Reading TOP/BOT-files (51.35%)      Reading TOP/BOT-files (54.05%)      Reading TOP/BOT-files (56.76%)      Reading TOP/BOT-files (59.46%)      Reading TOP/BOT-files (62.16%)      Reading TOP/BOT-files (64.86%)      Reading TOP/BOT-files (67.57%)      Reading TOP/BOT-files (70.27%)      Reading TOP/BOT-files (72.97%)      Reading TOP/BOT-files (75.68%)      Reading TOP/BOT-files (78.38%)      Reading TOP/BOT-files (81.08%)      Reading TOP/BOT-files (83.78%)      Reading TOP/BOT-files (86.49%)      Reading TOP/BOT-files (89.19%)      Reading TOP/BOT-files (91.89%)      Reading TOP/BOT-files (94.59%)      Reading TOP/BOT-files (97.30%)      Reading TOP/BOT-files (100.00%)      Reading LPF-files Permeability components (2.70%)      Reading LPF-files Permeability components (5.41%)      Reading LPF-files Permeability components (8.11%)      Reading LPF-files Permeability components (10.81%)      Reading LPF-files Permeability components (13.51%)      Reading LPF-files Permeability components (16.22%)      Reading LPF-files Permeability components (18.92%)      Reading LPF-files Permeability components (21.62%)      Reading LPF-files Permeability components (24.32%)      Reading LPF-files Permeability components (27.03%)      Reading LPF-files Permeability components (29.73%)      Reading LPF-files Permeability components (32.43%)      Reading LPF-files Permeability components (35.14%)      Reading LPF-files Permeability components (37.84%)      Reading LPF-files Permeability components (40.54%)      Reading LPF-files Permeability components (43.24%)      Reading LPF-files Permeability components (45.95%)      Reading LPF-files Permeability components (48.65%)      Reading LPF-files Permeability components (51.35%)      Reading LPF-files Permeability components (54.05%)      Reading LPF-files Permeability components (56.76%)      Reading LPF-files Permeability components (59.46%)      Reading LPF-files Permeability components (62.16%)      Reading LPF-files Permeability components (64.86%)      Reading LPF-files Permeability components (67.57%)      Reading LPF-files Permeability components (70.27%)      Reading LPF-files Permeability components (72.97%)      Reading LPF-files Permeability components (75.68%)      Reading LPF-files Permeability components (78.38%)      Reading LPF-files Permeability components (81.08%)      Reading LPF-files Permeability components (83.78%)      Reading LPF-files Permeability components (86.49%)      Reading LPF-files Permeability components (89.19%)      Reading LPF-files Permeability components (91.89%)      Reading LPF-files Permeability components (94.59%)      Reading LPF-files Permeability components (97.30%)      Reading LPF-files Permeability components (100.00%)      Reading LPF-files Storage components (2.70%)      Reading LPF-files Storage components (5.41%)      Reading LPF-files Storage components (8.11%)      Reading LPF-files Storage components (10.81%)      Reading LPF-files Storage components (13.51%)      Reading LPF-files Storage components (16.22%)      Reading LPF-files Storage components (18.92%)      Reading LPF-files Storage components (21.62%)      Reading LPF-files Storage components (24.32%)      Reading LPF-files Storage components (27.03%)      Reading LPF-files Storage components (29.73%)      Reading LPF-files Storage components (32.43%)      Reading LPF-files Storage components (35.14%)      Reading LPF-files Storage components (37.84%)      Reading LPF-files Storage components (40.54%)      Reading LPF-files Storage components (43.24%)      Reading LPF-files Storage components (45.95%)      Reading LPF-files Storage components (48.65%)      Reading LPF-files Storage components (51.35%)      Reading LPF-files Storage components (54.05%)      Reading LPF-files Storage components (56.76%)      Reading LPF-files Storage components (59.46%)      Reading LPF-files Storage components (62.16%)      Reading LPF-files Storage components (64.86%)      Reading LPF-files Storage components (67.57%)      Reading LPF-files Storage components (70.27%)      Reading LPF-files Storage components (72.97%)      Reading LPF-files Storage components (75.68%)      Reading LPF-files Storage components (78.38%)      Reading LPF-files Storage components (81.08%)      Reading LPF-files Storage components (83.78%)      Reading LPF-files Storage components (86.49%)      Reading LPF-files Storage components (89.19%)      Reading LPF-files Storage components (91.89%)      Reading LPF-files Storage components (94.59%)      Reading LPF-files Storage components (97.30%)      Reading LPF-files Storage components (100.00%)      

 Writing ..\..\SIM\NBR26\GWF_1\MODELINPUT\NBR26.IC6...

 Writing ..\..\SIM\NBR26\GWF_1\MODELINPUT\NBR26.DIS6...

 Writing ..\..\SIM\NBR26\GWF_1\MODELINPUT\NBR26.NPF6...

 Writing ..\..\SIM\NBR26\GWF_1\MODELINPUT\NBR26.STO6...

 Writing ..\..\SIM\NBR26\GWF_1\MODELINPUT\NBR26.HFB6...

 Writing ..\..\SIM\NBR26\GWF_1\MODELINPUT\NBR26.WEL6...
     STARTTIME        PCKTIME        ENDTIME          ENTRY
20100101000000 20100101000000 20100102000000              2
Exporting timestep      1    59     2 20100101000000 20100102000000Exporting timestep      2    59     2 20100102000000 20100103000000Exporting timestep      3    59     2 20100103000000 20100104000000Exporting timestep      4    59     2 20100104000000 20100105000000Exporting timestep      5    59     2 20100105000000 20100106000000Exporting timestep      6    59     2 20100106000000 20100107000000Exporting timestep      7    59     2 20100107000000 20100108000000Exporting timestep      8    59     2 20100108000000 20100109000000Exporting timestep      9    59     2 20100109000000 20100110000000Exporting timestep     10    59     2 20100110000000 20100111000000Exporting timestep     11    59     2 20100111000000 20100112000000Exporting timestep     12    59     2 20100112000000 20100113000000Exporting timestep     13    59     2 20100113000000 20100114000000Exporting timestep     14    59     2 20100114000000 20100115000000Exporting timestep     15    59     2 20100115000000 20100116000000Exporting timestep     16    59     2 20100116000000 20100117000000Exporting timestep     17    59     2 20100117000000 20100118000000Exporting timestep     18    59     2 20100118000000 20100119000000Exporting timestep     19    59     2 20100119000000 20100120000000Exporting timestep     20    59     2 20100120000000 20100121000000Exporting timestep     21    59     2 20100121000000 20100122000000Exporting timestep     22    59     2 20100122000000 20100123000000Exporting timestep     23    59     2 20100123000000 20100124000000Exporting timestep     24    59     2 20100124000000 20100125000000Exporting timestep     25    59     2 20100125000000 20100126000000Exporting timestep     26    59     2 20100126000000 20100127000000Exporting timestep     27    59     2 20100127000000 20100128000000Exporting timestep     28    59     2 20100128000000 20100129000000Exporting timestep     29    59     2 20100129000000 20100130000000Exporting timestep     30    59     2 20100130000000 20100131000000Exporting timestep     31    59     2 20100131000000 20100201000000Exporting timestep     32    59     2 20100201000000 20100202000000Exporting timestep     33    59     2 20100202000000 20100203000000Exporting timestep     34    59     2 20100203000000 20100204000000Exporting timestep     35    59     2 20100204000000 20100205000000Exporting timestep     36    59     2 20100205000000 20100206000000Exporting timestep     37    59     2 20100206000000 20100207000000Exporting timestep     38    59     2 20100207000000 20100208000000Exporting timestep     39    59     2 20100208000000 20100209000000Exporting timestep     40    59     2 20100209000000 20100210000000Exporting timestep     41    59     2 20100210000000 20100211000000Exporting timestep     42    59     2 20100211000000 20100212000000Exporting timestep     43    59     2 20100212000000 20100213000000Exporting timestep     44    59     2 20100213000000 20100214000000Exporting timestep     45    59     2 20100214000000 20100215000000Exporting timestep     46    59     2 20100215000000 20100216000000Exporting timestep     47    59     2 20100216000000 20100217000000Exporting timestep     48    59     2 20100217000000 20100218000000Exporting timestep     49    59     2 20100218000000 20100219000000Exporting timestep     50    59     2 20100219000000 20100220000000Exporting timestep     51    59     2 20100220000000 20100221000000Exporting timestep     52    59     2 20100221000000 20100222000000Exporting timestep     53    59     2 20100222000000 20100223000000Exporting timestep     54    59     2 20100223000000 20100224000000Exporting timestep     55    59     2 20100224000000 20100225000000Exporting timestep     56    59     2 20100225000000 20100226000000Exporting timestep     57    59     2 20100226000000 20100227000000Exporting timestep     58    59     2 20100227000000 20100228000000Exporting timestep     59    59     2 20100228000000 20100301000000

 Writing ..\..\SIM\NBR26\GWF_1\MODELINPUT\NBR26.DRN6...
     STARTTIME        PCKTIME        ENDTIME          ENTRY
20100101000000 20100101000000 20100102000000              2
Exporting timestep      1    59     2 20100101000000 20100102000000Exporting timestep      2    59    -2 20100102000000 20100103000000Exporting timestep      3    59    -2 20100103000000 20100104000000Exporting timestep      4    59    -2 20100104000000 20100105000000Exporting timestep      5    59    -2 20100105000000 20100106000000Exporting timestep      6    59    -2 20100106000000 20100107000000Exporting timestep      7    59    -2 20100107000000 20100108000000Exporting timestep      8    59    -2 20100108000000 20100109000000Exporting timestep      9    59    -2 20100109000000 20100110000000Exporting timestep     10    59    -2 20100110000000 20100111000000Exporting timestep     11    59    -2 20100111000000 20100112000000Exporting timestep     12    59    -2 20100112000000 20100113000000Exporting timestep     13    59    -2 20100113000000 20100114000000Exporting timestep     14    59    -2 20100114000000 20100115000000Exporting timestep     15    59    -2 20100115000000 20100116000000Exporting timestep     16    59    -2 20100116000000 20100117000000Exporting timestep     17    59    -2 20100117000000 20100118000000Exporting timestep     18    59    -2 20100118000000 20100119000000Exporting timestep     19    59    -2 20100119000000 20100120000000Exporting timestep     20    59    -2 20100120000000 20100121000000Exporting timestep     21    59    -2 20100121000000 20100122000000Exporting timestep     22    59    -2 20100122000000 20100123000000Exporting timestep     23    59    -2 20100123000000 20100124000000Exporting timestep     24    59    -2 20100124000000 20100125000000Exporting timestep     25    59    -2 20100125000000 20100126000000Exporting timestep     26    59    -2 20100126000000 20100127000000Exporting timestep     27    59    -2 20100127000000 20100128000000Exporting timestep     28    59    -2 20100128000000 20100129000000Exporting timestep     29    59    -2 20100129000000 20100130000000Exporting timestep     30    59    -2 20100130000000 20100131000000Exporting timestep     31    59    -2 20100131000000 20100201000000Exporting timestep     32    59    -2 20100201000000 20100202000000Exporting timestep     33    59    -2 20100202000000 20100203000000Exporting timestep     34    59    -2 20100203000000 20100204000000Exporting timestep     35    59    -2 20100204000000 20100205000000Exporting timestep     36    59    -2 20100205000000 20100206000000Exporting timestep     37    59    -2 20100206000000 20100207000000Exporting timestep     38    59    -2 20100207000000 20100208000000Exporting timestep     39    59    -2 20100208000000 20100209000000Exporting timestep     40    59    -2 20100209000000 20100210000000Exporting timestep     41    59    -2 20100210000000 20100211000000Exporting timestep     42    59    -2 20100211000000 20100212000000Exporting timestep     43    59    -2 20100212000000 20100213000000Exporting timestep     44    59    -2 20100213000000 20100214000000Exporting timestep     45    59    -2 20100214000000 20100215000000Exporting timestep     46    59    -2 20100215000000 20100216000000Exporting timestep     47    59    -2 20100216000000 20100217000000Exporting timestep     48    59    -2 20100217000000 20100218000000Exporting timestep     49    59    -2 20100218000000 20100219000000Exporting timestep     50    59    -2 20100219000000 20100220000000Exporting timestep     51    59    -2 20100220000000 20100221000000Exporting timestep     52    59    -2 20100221000000 20100222000000Exporting timestep     53    59    -2 20100222000000 20100223000000Exporting timestep     54    59    -2 20100223000000 20100224000000Exporting timestep     55    59    -2 20100224000000 20100225000000Exporting timestep     56    59    -2 20100225000000 20100226000000Exporting timestep     57    59    -2 20100226000000 20100227000000Exporting timestep     58    59    -2 20100227000000 20100228000000Exporting timestep     59    59    -2 20100228000000 20100301000000

 Writing ..\..\SIM\NBR26\GWF_1\MODELINPUT\NBR26.CHD6...
     STARTTIME        PCKTIME        ENDTIME          ENTRY
20100101000000 20100101000000 20100102000000              1
Exporting timestep      1    59     1 20100101000000 20100102000000Exporting timestep      2    59    -1 20100102000000 20100103000000Exporting timestep      3    59    -1 20100103000000 20100104000000Exporting timestep      4    59    -1 20100104000000 20100105000000Exporting timestep      5    59    -1 20100105000000 20100106000000Exporting timestep      6    59    -1 20100106000000 20100107000000Exporting timestep      7    59    -1 20100107000000 20100108000000Exporting timestep      8    59    -1 20100108000000 20100109000000Exporting timestep      9    59    -1 20100109000000 20100110000000Exporting timestep     10    59    -1 20100110000000 20100111000000Exporting timestep     11    59    -1 20100111000000 20100112000000Exporting timestep     12    59    -1 20100112000000 20100113000000Exporting timestep     13    59    -1 20100113000000 20100114000000
     STARTTIME        PCKTIME        ENDTIME          ENTRY
20100114000000 20100114000000 20100115000000              2
Exporting timestep     14    59     2 20100114000000 20100115000000Exporting timestep     15    59    -2 20100115000000 20100116000000Exporting timestep     16    59    -2 20100116000000 20100117000000Exporting timestep     17    59    -2 20100117000000 20100118000000Exporting timestep     18    59    -2 20100118000000 20100119000000Exporting timestep     19    59    -2 20100119000000 20100120000000Exporting timestep     20    59    -2 20100120000000 20100121000000Exporting timestep     21    59    -2 20100121000000 20100122000000Exporting timestep     22    59    -2 20100122000000 20100123000000Exporting timestep     23    59    -2 20100123000000 20100124000000Exporting timestep     24    59    -2 20100124000000 20100125000000Exporting timestep     25    59    -2 20100125000000 20100126000000Exporting timestep     26    59    -2 20100126000000 20100127000000Exporting timestep     27    59    -2 20100127000000 20100128000000Exporting timestep     28    59    -2 20100128000000 20100129000000Exporting timestep     29    59    -2 20100129000000 20100130000000Exporting timestep     30    59    -2 20100130000000 20100131000000Exporting timestep     31    59    -2 20100131000000 20100201000000Exporting timestep     32    59    -2 20100201000000 20100202000000Exporting timestep     33    59    -2 20100202000000 20100203000000Exporting timestep     34    59    -2 20100203000000 20100204000000Exporting timestep     35    59    -2 20100204000000 20100205000000Exporting timestep     36    59    -2 20100205000000 20100206000000Exporting timestep     37    59    -2 20100206000000 20100207000000Exporting timestep     38    59    -2 20100207000000 20100208000000Exporting timestep     39    59    -2 20100208000000 20100209000000Exporting timestep     40    59    -2 20100209000000 20100210000000Exporting timestep     41    59    -2 20100210000000 20100211000000Exporting timestep     42    59    -2 20100211000000 20100212000000Exporting timestep     43    59    -2 20100212000000 20100213000000Exporting timestep     44    59    -2 20100213000000 20100214000000
     STARTTIME        PCKTIME        ENDTIME          ENTRY
20100214000000 20100214000000 20100215000000              3
Exporting timestep     45    59     3 20100214000000 20100215000000Exporting timestep     46    59    -3 20100215000000 20100216000000Exporting timestep     47    59    -3 20100216000000 20100217000000Exporting timestep     48    59    -3 20100217000000 20100218000000Exporting timestep     49    59    -3 20100218000000 20100219000000Exporting timestep     50    59    -3 20100219000000 20100220000000Exporting timestep     51    59    -3 20100220000000 20100221000000Exporting timestep     52    59    -3 20100221000000 20100222000000Exporting timestep     53    59    -3 20100222000000 20100223000000Exporting timestep     54    59    -3 20100223000000 20100224000000Exporting timestep     55    59    -3 20100224000000 20100225000000Exporting timestep     56    59    -3 20100225000000 20100226000000Exporting timestep     57    59    -3 20100226000000 20100227000000Exporting timestep     58    59    -3 20100227000000 20100228000000Exporting timestep     59    59    -3 20100228000000 20100301000000

 Writing MetaSwap files ...
Progress 0.15%             Progress 0.29%             Progress 0.44%             Progress 0.58%             Progress 0.73%             Progress 0.87%             Progress 1.02%             Progress 1.16%             Progress 1.31%             Progress 1.45%             Progress 1.60%             Progress 1.74%             Progress 1.89%             Progress 2.03%             Progress 2.18%             Progress 2.33%             Progress 2.47%             Progress 2.62%             Progress 2.76%             Progress 2.91%             Progress 3.05%             Progress 3.20%             Progress 3.34%             Progress 3.49%             Progress 3.63%             Progress 3.78%             Progress 3.92%             Progress 4.07%             Progress 4.22%             Progress 4.36%             Progress 4.51%             Progress 4.65%             Progress 4.80%             Progress 4.94%             Progress 5.09%             Progress 5.23%             Progress 5.38%             Progress 5.52%             Progress 5.67%             Progress 5.81%             Progress 5.96%             Progress 6.10%             Progress 6.25%             Progress 6.40%             Progress 6.54%             Progress 6.69%             Progress 6.83%             Progress 6.98%             Progress 7.12%             Progress 7.27%             Progress 7.41%             Progress 7.56%             Progress 7.70%             Progress 7.85%             Progress 7.99%             Progress 8.14%             Progress 8.28%             Progress 8.43%             Progress 8.58%             Progress 8.72%             Progress 8.87%             Progress 9.01%             Progress 9.16%             Progress 9.30%             Progress 9.45%             Progress 9.59%             Progress 9.74%             Progress 9.88%             Progress 10.03%             Progress 10.17%             Progress 10.32%             Progress 10.47%             Progress 10.61%             Progress 10.76%             Progress 10.90%             Progress 11.05%             Progress 11.19%             Progress 11.34%             Progress 11.48%             Progress 11.63%             Progress 11.77%             Progress 11.92%             Progress 12.06%             Progress 12.21%             Progress 12.35%             Progress 12.50%             Progress 12.65%             Progress 12.79%             Progress 12.94%             Progress 13.08%             Progress 13.23%             Progress 13.37%             Progress 13.52%             Progress 13.66%             Progress 13.81%             Progress 13.95%             Progress 14.10%             Progress 14.24%             Progress 14.39%             Progress 14.53%             Progress 14.68%             Progress 14.83%             Progress 14.97%             Progress 15.12%             Progress 15.26%             Progress 15.41%             Progress 15.55%             Progress 15.70%             Progress 15.84%             Progress 15.99%             Progress 16.13%             Progress 16.28%             Progress 16.42%             Progress 16.57%             Progress 16.72%             Progress 16.86%             Progress 17.01%             Progress 17.15%             Progress 17.30%             Progress 17.44%             Progress 17.59%             Progress 17.73%             Progress 17.88%             Progress 18.02%             Progress 18.17%             Progress 18.31%             Progress 18.46%             Progress 18.60%             Progress 18.75%             Progress 18.90%             Progress 19.04%             Progress 19.19%             Progress 19.33%             Progress 19.48%             Progress 19.62%             Progress 19.77%             Progress 19.91%             Progress 20.06%             Progress 20.20%             Progress 20.35%             Progress 20.49%             Progress 20.64%             Progress 20.78%             Progress 20.93%             Progress 21.08%             Progress 21.22%             Progress 21.37%             Progress 21.51%             Progress 21.66%             Progress 21.80%             Progress 21.95%             Progress 22.09%             Progress 22.24%             Progress 22.38%             Progress 22.53%             Progress 22.67%             Progress 22.82%             Progress 22.97%             Progress 23.11%             Progress 23.26%             Progress 23.40%             Progress 23.55%             Progress 23.69%             Progress 23.84%             Progress 23.98%             Progress 24.13%             Progress 24.27%             Progress 24.42%             Progress 24.56%             Progress 24.71%             Progress 24.85%             Progress 25.00%             Progress 25.15%             Progress 25.29%             Progress 25.44%             Progress 25.58%             Progress 25.73%             Progress 25.87%             Progress 26.02%             Progress 26.16%             Progress 26.31%             Progress 26.45%             Progress 26.60%             Progress 26.74%             Progress 26.89%             Progress 27.03%             Progress 27.18%             Progress 27.33%             Progress 27.47%             Progress 27.62%             Progress 27.76%             Progress 27.91%             Progress 28.05%             Progress 28.20%             Progress 28.34%             Progress 28.49%             Progress 28.63%             Progress 28.78%             Progress 28.92%             Progress 29.07%             Progress 29.22%             Progress 29.36%             Progress 29.51%             Progress 29.65%             Progress 29.80%             Progress 29.94%             Progress 30.09%             Progress 30.23%             Progress 30.38%             Progress 30.52%             Progress 30.67%             Progress 30.81%             Progress 30.96%             Progress 31.10%             Progress 31.25%             Progress 31.40%             Progress 31.54%             Progress 31.69%             Progress 31.83%             Progress 31.98%             Progress 32.12%             Progress 32.27%             Progress 32.41%             Progress 32.56%             Progress 32.70%             Progress 32.85%             Progress 32.99%             Progress 33.14%             Progress 33.28%             Progress 33.43%             Progress 33.58%             Progress 33.72%             Progress 33.87%             Progress 34.01%             Progress 34.16%             Progress 34.30%             Progress 34.45%             Progress 34.59%             Progress 34.74%             Progress 34.88%             Progress 35.03%             Progress 35.17%             Progress 35.32%             Progress 35.47%             Progress 35.61%             Progress 35.76%             Progress 35.90%             Progress 36.05%             Progress 36.19%             Progress 36.34%             Progress 36.48%             Progress 36.63%             Progress 36.77%             Progress 36.92%             Progress 37.06%             Progress 37.21%             Progress 37.35%             Progress 37.50%             Progress 37.65%             Progress 37.79%             Progress 37.94%             Progress 38.08%             Progress 38.23%             Progress 38.37%             Progress 38.52%             Progress 38.66%             Progress 38.81%             Progress 38.95%             Progress 39.10%             Progress 39.24%             Progress 39.39%             Progress 39.53%             Progress 39.68%             Progress 39.83%             Progress 39.97%             Progress 40.12%             Progress 40.26%             Progress 40.41%             Progress 40.55%             Progress 40.70%             Progress 40.84%             Progress 40.99%             Progress 41.13%             Progress 41.28%             Progress 41.42%             Progress 41.57%             Progress 41.72%             Progress 41.86%             Progress 42.01%             Progress 42.15%             Progress 42.30%             Progress 42.44%             Progress 42.59%             Progress 42.73%             Progress 42.88%             Progress 43.02%             Progress 43.17%             Progress 43.31%             Progress 43.46%             Progress 43.60%             Progress 43.75%             Progress 43.90%             Progress 44.04%             Progress 44.19%             Progress 44.33%             Progress 44.48%             Progress 44.62%             Progress 44.77%             Progress 44.91%             Progress 45.06%             Progress 45.20%             Progress 45.35%             Progress 45.49%             Progress 45.64%             Progress 45.78%             Progress 45.93%             Progress 46.08%             Progress 46.22%             Progress 46.37%             Progress 46.51%             Progress 46.66%             Progress 46.80%             Progress 46.95%             Progress 47.09%             Progress 47.24%             Progress 47.38%             Progress 47.53%             Progress 47.67%             Progress 47.82%             Progress 47.97%             Progress 48.11%             Progress 48.26%             Progress 48.40%             Progress 48.55%             Progress 48.69%             Progress 48.84%             Progress 48.98%             Progress 49.13%             Progress 49.27%             Progress 49.42%             Progress 49.56%             Progress 49.71%             Progress 49.85%             Progress 50.00%             Progress 0.29%             Progress 0.58%             Progress 0.87%             Progress 1.16%             Progress 1.45%             Progress 1.74%             Progress 2.03%             Progress 2.33%             Progress 2.62%             Progress 2.91%             Progress 3.20%             Progress 3.49%             Progress 3.78%             Progress 4.07%             Progress 4.36%             Progress 4.65%             Progress 4.94%             Progress 5.23%             Progress 5.52%             Progress 5.81%             Progress 6.10%             Progress 6.40%             Progress 6.69%             Progress 6.98%             Progress 7.27%             Progress 7.56%             Progress 7.85%             Progress 8.14%             Progress 8.43%             Progress 8.72%             Progress 9.01%             Progress 9.30%             Progress 9.59%             Progress 9.88%             Progress 10.17%             Progress 10.47%             Progress 10.76%             Progress 11.05%             Progress 11.34%             Progress 11.63%             Progress 11.92%             Progress 12.21%             Progress 12.50%             Progress 12.79%             Progress 13.08%             Progress 13.37%             Progress 13.66%             Progress 13.95%             Progress 14.24%             Progress 14.53%             Progress 14.83%             Progress 15.12%             Progress 15.41%             Progress 15.70%             Progress 15.99%             Progress 16.28%             Progress 16.57%             Progress 16.86%             Progress 17.15%             Progress 17.44%             Progress 17.73%             Progress 18.02%             Progress 18.31%             Progress 18.60%             Progress 18.90%             Progress 19.19%             Progress 19.48%             Progress 19.77%             Progress 20.06%             Progress 20.35%             Progress 20.64%             Progress 20.93%             Progress 21.22%             Progress 21.51%             Progress 21.80%             Progress 22.09%             Progress 22.38%             Progress 22.67%             Progress 22.97%             Progress 23.26%             Progress 23.55%             Progress 23.84%             Progress 24.13%             Progress 24.42%             Progress 24.71%             Progress 25.00%             Progress 25.29%             Progress 25.58%             Progress 25.87%             Progress 26.16%             Progress 26.45%             Progress 26.74%             Progress 27.03%             Progress 27.33%             Progress 27.62%             Progress 27.91%             Progress 28.20%             Progress 28.49%             Progress 28.78%             Progress 29.07%             Progress 29.36%             Progress 29.65%             Progress 29.94%             Progress 30.23%             Progress 30.52%             Progress 30.81%             Progress 31.10%             Progress 31.40%             Progress 31.69%             Progress 31.98%             Progress 32.27%             Progress 32.56%             Progress 32.85%             Progress 33.14%             Progress 33.43%             Progress 33.72%             Progress 34.01%             Progress 34.30%             Progress 34.59%             Progress 34.88%             Progress 35.17%             Progress 35.47%             Progress 35.76%             Progress 36.05%             Progress 36.34%             Progress 36.63%             Progress 36.92%             Progress 37.21%             Progress 37.50%             Progress 37.79%             Progress 38.08%             Progress 38.37%             Progress 38.66%             Progress 38.95%             Progress 39.24%             Progress 39.53%             Progress 39.83%             Progress 40.12%             Progress 40.41%             Progress 40.70%             Progress 40.99%             Progress 41.28%             Progress 41.57%             Progress 41.86%             Progress 42.15%             Progress 42.44%             Progress 42.73%             Progress 43.02%             Progress 43.31%             Progress 43.60%             Progress 43.90%             Progress 44.19%             Progress 44.48%             Progress 44.77%             Progress 45.06%             Progress 45.35%             Progress 45.64%             Progress 45.93%             Progress 46.22%             Progress 46.51%             Progress 46.80%             Progress 47.09%             Progress 47.38%             Progress 47.67%             Progress 47.97%             Progress 48.26%             Progress 48.55%             Progress 48.84%             Progress 49.13%             Progress 49.42%             Progress 49.71%             Progress 50.00%             Progress 50.29%             Progress 50.58%             Progress 50.87%             Progress 51.16%             Progress 51.45%             Progress 51.74%             Progress 52.03%             Progress 52.33%             Progress 52.62%             Progress 52.91%             Progress 53.20%             Progress 53.49%             Progress 53.78%             Progress 54.07%             Progress 54.36%             Progress 54.65%             Progress 54.94%             Progress 55.23%             Progress 55.52%             Progress 55.81%             Progress 56.10%             Progress 56.40%             Progress 56.69%             Progress 56.98%             Progress 57.27%             Progress 57.56%             Progress 57.85%             Progress 58.14%             Progress 58.43%             Progress 58.72%             Progress 59.01%             Progress 59.30%             Progress 59.59%             Progress 59.88%             Progress 60.17%             Progress 60.47%             Progress 60.76%             Progress 61.05%             Progress 61.34%             Progress 61.63%             Progress 61.92%             Progress 62.21%             Progress 62.50%             Progress 62.79%             Progress 63.08%             Progress 63.37%             Progress 63.66%             Progress 63.95%             Progress 64.24%             Progress 64.53%             Progress 64.83%             Progress 65.12%             Progress 65.41%             Progress 65.70%             Progress 65.99%             Progress 66.28%             Progress 66.57%             Progress 66.86%             Progress 67.15%             Progress 67.44%             Progress 67.73%             Progress 68.02%             Progress 68.31%             Progress 68.60%             Progress 68.90%             Progress 69.19%             Progress 69.48%             Progress 69.77%             Progress 70.06%             Progress 70.35%             Progress 70.64%             Progress 70.93%             Progress 71.22%             Progress 71.51%             Progress 71.80%             Progress 72.09%             Progress 72.38%             Progress 72.67%             Progress 72.97%             Progress 73.26%             Progress 73.55%             Progress 73.84%             Progress 74.13%             Progress 74.42%             Progress 74.71%             Progress 75.00%             Progress 75.29%             Progress 75.58%             Progress 75.87%             Progress 76.16%             Progress 76.45%             Progress 76.74%             Progress 77.03%             Progress 77.33%             Progress 77.62%             Progress 77.91%             Progress 78.20%             Progress 78.49%             Progress 78.78%             Progress 79.07%             Progress 79.36%             Progress 79.65%             Progress 79.94%             Progress 80.23%             Progress 80.52%             Progress 80.81%             Progress 81.10%             Progress 81.40%             Progress 81.69%             Progress 81.98%             Progress 82.27%             Progress 82.56%             Progress 82.85%             Progress 83.14%             Progress 83.43%             Progress 83.72%             Progress 84.01%             Progress 84.30%             Progress 84.59%             Progress 84.88%             Progress 85.17%             Progress 85.47%             Progress 85.76%             Progress 86.05%             Progress 86.34%             Progress 86.63%             Progress 86.92%             Progress 87.21%             Progress 87.50%             Progress 87.79%             Progress 88.08%             Progress 88.37%             Progress 88.66%             Progress 88.95%             Progress 89.24%             Progress 89.53%             Progress 89.83%             Progress 90.12%             Progress 90.41%             Progress 90.70%             Progress 90.99%             Progress 91.28%             Progress 91.57%             Progress 91.86%             Progress 92.15%             Progress 92.44%             Progress 92.73%             Progress 93.02%             Progress 93.31%             Progress 93.60%             Progress 93.90%             Progress 94.19%             Progress 94.48%             Progress 94.77%             Progress 95.06%             Progress 95.35%             Progress 95.64%             Progress 95.93%             Progress 96.22%             Progress 96.51%             Progress 96.80%             Progress 97.09%             Progress 97.38%             Progress 97.67%             Progress 97.97%             Progress 98.26%             Progress 98.55%             Progress 98.84%             Progress 99.13%             Progress 99.42%             Progress 99.71%             Progress 100.00%                     1 file(s) copied.
        1 file(s) copied.
        1 file(s) copied.
        1 file(s) copied.
        1 file(s) copied.


Successfully written MF6 files:..\..\Sim\NBr26\NBr26.nam


iMOD removed tmp-folder:
  C:\OD\WS_Mdl\models\NBr\code\Mdl_Prep\IMOD_TMP\BATCH1

[Thu Jul  3 16:21:40 2025]
Finished jobid: 3 (Rule: Mdl_Prep)
2 of 10 steps (20%) done
Removing temporary output C:/OD/WS_Mdl/models/NBr/code/snakemake/temp/Log_init_done_NBr26.
Select jobs to execute...
Execute 3 jobs...

[Thu Jul  3 16:21:40 2025]
localrule add_SFR_copy:
    input: C:/OD/WS_Mdl/models/NBr/Sim/NBr26/RUN.BAT, C:/OD/WS_Mdl/models/NBr/In/SFR/NBr25/NBr25.SFR6
    output: C:/OD/WS_Mdl/models/NBr/Sim/NBr26/GWF_1/MODELINPUT/NBr26.SFR6
    jobid: 5
    reason: Missing output files: C:/OD/WS_Mdl/models/NBr/Sim/NBr26/GWF_1/MODELINPUT/NBr26.SFR6; Input files updated by another job: C:/OD/WS_Mdl/models/NBr/Sim/NBr26/RUN.BAT
    resources: tmpdir=C:\Users\Karam014\AppData\Local\Temp
Shell command: None

[Thu Jul  3 16:21:40 2025]
localrule add_OBS:
    input: C:/OD/WS_Mdl/models/NBr/Sim/NBr26/RUN.BAT
    output: C:/OD/WS_Mdl/models/NBr/Sim/NBr26/GWF_1/MODELINPUT/NBr26.OBS6
    jobid: 2
    reason: Missing output files: C:/OD/WS_Mdl/models/NBr/Sim/NBr26/GWF_1/MODELINPUT/NBr26.OBS6; Input files updated by another job: C:/OD/WS_Mdl/models/NBr/Sim/NBr26/RUN.BAT
    resources: tmpdir=C:\Users\Karam014\AppData\Local\Temp
Shell command: None

[Thu Jul  3 16:21:40 2025]
localrule add_SFR_OBS_copy:
    input: C:/OD/WS_Mdl/models/NBr/Sim/NBr26/RUN.BAT, C:/OD/WS_Mdl/models/NBr/In/OBS/SFR/NBr25/NBr25.SFR.OBS6
    output: C:/OD/WS_Mdl/models/NBr/Sim/NBr26/GWF_1/MODELINPUT/NBr26.SFR.OBS6
    jobid: 6
    reason: Missing output files: C:/OD/WS_Mdl/models/NBr/Sim/NBr26/GWF_1/MODELINPUT/NBr26.SFR.OBS6; Input files updated by another job: C:/OD/WS_Mdl/models/NBr/Sim/NBr26/RUN.BAT
    resources: tmpdir=C:\Users\Karam014\AppData\Local\Temp
Shell command: None
[Thu Jul  3 16:21:41 2025]
Finished jobid: 6 (Rule: add_SFR_OBS_copy)
3 of 10 steps (30%) done
[Thu Jul  3 16:21:42 2025]
Finished jobid: 5 (Rule: add_SFR_copy)
4 of 10 steps (40%) done
[Thu Jul  3 16:21:44 2025]
Finished jobid: 2 (Rule: add_OBS)
5 of 10 steps (50%) done
Select jobs to execute...
Execute 1 jobs...

[Thu Jul  3 16:21:44 2025]
localrule Sim:
    input: C:/OD/WS_Mdl/models/NBr/Sim/NBr26/GWF_1/MODELINPUT/NBr26.OBS6, C:/OD/WS_Mdl/models/NBr/Sim/NBr26/GWF_1/MODELINPUT/NBr26.SFR6, C:/OD/WS_Mdl/models/NBr/Sim/NBr26/GWF_1/MODELINPUT/NBr26.SFR.OBS6
    output: C:/OD/WS_Mdl/models/NBr/code/snakemake/temp/Log_Sim_done_NBr26
    jobid: 1
    reason: Missing output files: C:/OD/WS_Mdl/models/NBr/code/snakemake/temp/Log_Sim_done_NBr26; Input files updated by another job: C:/OD/WS_Mdl/models/NBr/Sim/NBr26/GWF_1/MODELINPUT/NBr26.SFR6, C:/OD/WS_Mdl/models/NBr/Sim/NBr26/GWF_1/MODELINPUT/NBr26.OBS6, C:/OD/WS_Mdl/models/NBr/Sim/NBr26/GWF_1/MODELINPUT/NBr26.SFR.OBS6
    resources: tmpdir=C:\Users\Karam014\AppData\Local\Temp
Shell command: None

C:\OD\WS_Mdl\models\NBr\Sim\NBr26>REM ========================== 

C:\OD\WS_Mdl\models\NBr\Sim\NBr26>REM Run Script iMOD V5_6_1 

C:\OD\WS_Mdl\models\NBr\Sim\NBr26>REM ========================== 

C:\OD\WS_Mdl\models\NBr\Sim\NBr26>TITLE "TOMLFILE: NBr26.toml" 

C:\OD\WS_Mdl\models\NBr\Sim\NBr26>REM run iMOD-coupler with MODFLOW6-METASWAP model 

C:\OD\WS_Mdl\models\NBr\Sim\NBr26>..\..\..\..\software\iMOD5\bin\iMOD_coupler\imodc.exe NBr26.toml 
iMOD Coupler: [1miMOD Coupler 0.11.0-dev[0m
                                   MODFLOW 6
                U.S. GEOLOGICAL SURVEY MODULAR HYDROLOGIC MODEL
                            VERSION 6.4.2 06/28/2023

   MODFLOW 6 compiled Jun 28 2023 18:41:13 with Intel(R) Fortran Intel(R) 64
   Compiler Classic for applications running on Intel(R) 64, Version 2021.7.0
                             Build 20220726_000000

This software has been approved for release by the U.S. Geological 
Survey (USGS). Although the software has been subjected to rigorous 
review, the USGS reserves the right to update the software as needed 
pursuant to further analysis and review. No warranty, expressed or 
implied, is made by the USGS or the U.S. Government as to the 
functionality of the software and related material nor shall the 
fact of release constitute any such warranty. Furthermore, the 
software is released on condition that neither the USGS nor the U.S. 
Government shall be held liable for any damages resulting from its 
authorized or unauthorized use. Also refer to the USGS Water 
Resources Software User Rights Notice for complete use, copyright, 
and distribution information.

 
 Run start date and time (yyyy/mm/dd hh:mm:ss): 2025/07/03 16:22:04
 
 Writing simulation list file: mfsim.lst
 Using Simulation name file: mfsim.nam
 
 
 
MetaSWAP version V8.1.2.4
 Reading file tiop_sim.inp
  Writing file time_sim.inp
 Reading file para_sim.inp
 End reading file para_sim.inp
 Not available file mete_svat.inp           
 Reading file mete_grid.inp           
 Reading file mod2svat.inp
 >> Reading array dimensions
 Reading file area_svat.inp           
 >> Allocating array dimensions
Reading file unsa_svat.bda key-info
 Reading file mod2svat.inp
 --> number of SVATs     coupled to MODFLOW =     183388
 --> number of SVATs not coupled to MODFLOW =          0
 Reading file fact_svat.inp
  -->max. value of vegetation index in fact_svat.inp=  19
 Reading file luse_svat.inp
  -->max. value of vegetation index in luse_svat.inp=  19
  -->max. value of land use   index in luse_svat.inp=  25
 << Reading array dimensions END
 Reading file fact_svat.inp
 Reading file area_svat.inp
 Reading file infi_svat.inp
Reading file unsa_svat.bda bulk data BEGIN
  spu=  36
  spu=  47
  spu=  49
  spu=  50
  spu=  58
  spu=  59
  spu=  67
  spu=  68
  spu=  74
  spu=  77
  spu=  78
  spu=  79
  spu=  81
  spu=  82
  spu=  84
  spu=  88
  spu=  89
  spu=  90
  spu=  93
  spu=  96
  spu=  97
  spu= 100
  spu= 101
  spu= 102
  spu= 105
  spu= 106
  spu= 118
  spu= 120
  spu= 126
  spu= 127
  spu= 129
  spu= 130
  spu= 131
  spu= 135
  spu= 140
  spu= 141
  spu= 146
  spu= 147
  spu= 148
  spu= 151
  spu= 159
  spu= 161
  spu= 164
  spu= 167
  spu= 172
  spu= 176
  spu= 183
  spu= 253
  spu= 360
Reading file unsa_svat.bda bulk data   END
 Converting tables of unsa
 Building sigma tables from unsa_svat.bda
 Reading file svat2swnr_roff.inp      
 Reading file time_sim.inp            
 Not available file mete_svat.inp           
 Reading file svat2PrecGrid.inp       
 Reading file svat2EtrefGrid.inp      
  Openmete Marker -1
 Reading file mete_grid.inp           
  Openmete Marker 0
  Openmete Marker 1
  Openmete Marker 2
  Openmete Marker 3
 Reading file C:\OD\WS_Mdl\models\NBr\In\CAP\P\NBr1\P_20100101_NBr1.asc 
 Reading file C:\OD\WS_Mdl\models\NBr\In\CAP\PET\NBr1\PET_20100101_NBr1.asc 
 Reading file C:\OD\WS_Mdl\models\NBr\In\CAP\P\NBr1\P_20100102_NBr1.asc 
 Reading file C:\OD\WS_Mdl\models\NBr\In\CAP\PET\NBr1\PET_20100102_NBr1.asc 
  Openmete Marker 4
 Reading file scap_svat.inp           
 Reading file area_svat.inp           
 nukey_1 readselsvat=         176
 Reading file sel_key_svat_per.inp    
 nukey_2 readselsvat=         176
 Not available file sel_svat_csv.inp        
MetaSWAP_end, tiac =     0.00
 
MODFLOW_begin
iMOD Coupler: [1mMODFLOW version: 6.4.2[0m
iMOD Coupler: [1mMetaSWAP version: V8.1.2.4[0m
    Solving:  Stress period:     1    Time step:     1
MODFLOW_end
 
MetaSWAP_begin, tiac =     0.00
 Reading file init_svat.inp           
 Processing of initial MODFLOW heads BEGIN
 Processing of initial MODFLOW heads END
 Reading file init_svat.inp           
  -->initialization with qm = P from meteo
>> DO idtsw=1,nudtsw
     msw1top
MetaSWAP_dtsw_begin, tiac =     0.00
 msw1top_begin, k =       1
 msw1top_end,   k =  183388
MetaSWAP_dtsw_end,   tiac =     1.00
<< ENDDO
MetaSWAP_end, tiac =     1.00
 
MODFLOW_begin
 msw1unsa_begin, k        1
 msw1unsa_end,   k   183388
 msw1postfm_qmodf_begin, k =       1
 msw1postfm_qmodf_end  , k =  183388
 
 iter_outer =  1 : [Hgwmsw - Hgwmodf] (svat= 129433)= -0.46941 m
 iter_outer =  1 : [Hgwmsw - Hgwmodf] (svat= 129958)=  0.27096 m
 

 Cumulative relative frequency distribution of [Hgwmsw-Hgwmodf](m)
 0.00000  1e-5   1e-4   1e-3   1e-2   0.5  1-1e-2 1-1e-3 1-1e-4 1-1e-5 1.00000
 -0.468 -0.295 -0.113 -0.071 -0.009  0.000  0.030  0.069  0.107  0.175  0.271
 
   msw1postfm_sc1_begin, k =       1
   msw1postfm_sc1_end  , k =  183388

 msw1postfm_qmodf_begin, k =       1
 msw1postfm_qmodf_end  , k =  183388
 
 iter_outer =  2 : [Hgwmsw - Hgwmodf] (svat= 129433)= -0.32611 m
 iter_outer =  2 : [Hgwmsw - Hgwmodf] (svat= 129958)=  0.21163 m
 

 Cumulative relative frequency distribution of [Hgwmsw-Hgwmodf](m)
 0.00000  1e-5   1e-4   1e-3   1e-2   0.5  1-1e-2 1-1e-3 1-1e-4 1-1e-5 1.00000
 -0.325 -0.175 -0.025 -0.012 -0.001  0.000  0.003  0.045  0.122  0.195  0.212
 
   msw1postfm_sc1_begin, k =       1
   msw1postfm_sc1_end  , k =  183388

 msw1postfm_qmodf_begin, k =       1
 msw1postfm_qmodf_end  , k =  183388
 
 iter_outer =  3 : [Hgwmsw - Hgwmodf] (svat= 129433)= -0.11579 m
 iter_outer =  3 : [Hgwmsw - Hgwmodf] (svat= 129958)=  0.16002 m
 

 Cumulative relative frequency distribution of [Hgwmsw-Hgwmodf](m)
 0.00000  1e-5   1e-4   1e-3   1e-2   0.5  1-1e-2 1-1e-3 1-1e-4 1-1e-5 1.00000
 -0.115 -0.098 -0.005 -0.003  0.000  0.000  0.001  0.020  0.070  0.111  0.160
 
   msw1postfm_sc1_begin, k =       1
   msw1postfm_sc1_end  , k =  183388

 msw1postfm_qmodf_begin, k =       1
 msw1postfm_qmodf_end  , k =  183388
 
 iter_outer =  4 : [Hgwmsw - Hgwmodf] (svat=  90864)= -0.03495 m
 iter_outer =  4 : [Hgwmsw - Hgwmodf] (svat= 130475)=  0.11535 m
 

 Cumulative relative frequency distribution of [Hgwmsw-Hgwmodf](m)
 0.00000  1e-5   1e-4   1e-3   1e-2   0.5  1-1e-2 1-1e-3 1-1e-4 1-1e-5 1.00000
 -0.034 -0.032 -0.024 -0.004  0.000  0.000  0.000  0.002  0.029  0.088  0.115
 
   msw1postfm_sc1_begin, k =       1
   msw1postfm_sc1_end  , k =  183388

 msw1postfm_qmodf_begin, k =       1
 msw1postfm_qmodf_end  , k =  183388
 
 iter_outer =  5 : [Hgwmsw - Hgwmodf] (svat= 170380)= -0.02212 m
 iter_outer =  5 : [Hgwmsw - Hgwmodf] (svat= 130475)=  0.09353 m
 

 Cumulative relative frequency distribution of [Hgwmsw-Hgwmodf](m)
 0.00000  1e-5   1e-4   1e-3   1e-2   0.5  1-1e-2 1-1e-3 1-1e-4 1-1e-5 1.00000
 -0.021 -0.010 -0.003  0.000  0.000  0.000  0.000  0.001  0.023  0.073  0.094
 
   msw1postfm_sc1_begin, k =       1
   msw1postfm_sc1_end  , k =  183388

 msw1postfm_qmodf_begin, k =       1
 msw1postfm_qmodf_end  , k =  183388
 
 iter_outer =  6 : [Hgwmsw - Hgwmodf] (svat=  76684)= -0.00220 m
 iter_outer =  6 : [Hgwmsw - Hgwmodf] (svat= 130475)=  0.07294 m
 

 Cumulative relative frequency distribution of [Hgwmsw-Hgwmodf](m)
 0.00000  1e-5   1e-4   1e-3   1e-2   0.5  1-1e-2 1-1e-3 1-1e-4 1-1e-5 1.00000
 -0.001 -0.001  0.000  0.000  0.000  0.000  0.000  0.000  0.012  0.048  0.073
 
   msw1postfm_sc1_begin, k =       1
   msw1postfm_sc1_end  , k =  183388

 msw1postfm_qmodf_begin, k =       1
 msw1postfm_qmodf_end  , k =  183388
 
 iter_outer =  7 : [Hgwmsw - Hgwmodf] (svat= 147326)= -0.01727 m
 iter_outer =  7 : [Hgwmsw - Hgwmodf] (svat= 130475)=  0.05353 m
 

 Cumulative relative frequency distribution of [Hgwmsw-Hgwmodf](m)
 0.00000  1e-5   1e-4   1e-3   1e-2   0.5  1-1e-2 1-1e-3 1-1e-4 1-1e-5 1.00000
 -0.016 -0.005  0.000  0.000  0.000  0.000  0.000  0.000  0.002  0.037  0.054
 
   msw1postfm_sc1_begin, k =       1
   msw1postfm_sc1_end  , k =  183388

 msw1postfm_qmodf_begin, k =       1
 msw1postfm_qmodf_end  , k =  183388
 
 iter_outer =  8 : [Hgwmsw - Hgwmodf] (svat=  76684)= -0.00115 m
 iter_outer =  8 : [Hgwmsw - Hgwmodf] (svat= 124608)=  0.03540 m
 

 Cumulative relative frequency distribution of [Hgwmsw-Hgwmodf](m)
 0.00000  1e-5   1e-4   1e-3   1e-2   0.5  1-1e-2 1-1e-3 1-1e-4 1-1e-5 1.00000
  0.000  0.000  0.000  0.000  0.000  0.000  0.000  0.000  0.000  0.028  0.035
 
   msw1postfm_sc1_begin, k =       1
   msw1postfm_sc1_end  , k =  183388

 msw1postfm_qmodf_begin, k =       1
 msw1postfm_qmodf_end  , k =  183388
 
 iter_outer =  9 : [Hgwmsw - Hgwmodf] (svat= 151356)= -0.00121 m
 iter_outer =  9 : [Hgwmsw - Hgwmodf] (svat= 124608)=  0.02751 m
 

 Cumulative relative frequency distribution of [Hgwmsw-Hgwmodf](m)
 0.00000  1e-5   1e-4   1e-3   1e-2   0.5  1-1e-2 1-1e-3 1-1e-4 1-1e-5 1.00000
  0.000  0.000  0.000  0.000  0.000  0.000  0.000  0.000  0.000  0.025  0.028
 
   msw1postfm_sc1_begin, k =       1
   msw1postfm_sc1_end  , k =  183388

 msw1postfm_qmodf_begin, k =       1
 msw1postfm_qmodf_end  , k =  183388
 
 iter_outer = 10 : [Hgwmsw - Hgwmodf] (svat=  76684)= -0.00061 m
 iter_outer = 10 : [Hgwmsw - Hgwmodf] (svat= 129961)=  0.02593 m
 

 Cumulative relative frequency distribution of [Hgwmsw-Hgwmodf](m)
 0.00000  1e-5   1e-4   1e-3   1e-2   0.5  1-1e-2 1-1e-3 1-1e-4 1-1e-5 1.00000
  0.000  0.000  0.000  0.000  0.000  0.000  0.000  0.000  0.000  0.023  0.026
 
   msw1postfm_sc1_begin, k =       1
   msw1postfm_sc1_end  , k =  183388

 msw1postfm_qmodf_begin, k =       1
 msw1postfm_qmodf_end  , k =  183388
 
 iter_outer = 11 : [Hgwmsw - Hgwmodf] (svat= 151356)= -0.00021 m
 iter_outer = 11 : [Hgwmsw - Hgwmodf] (svat= 129961)=  0.02549 m
 

 Cumulative relative frequency distribution of [Hgwmsw-Hgwmodf](m)
 0.00000  1e-5   1e-4   1e-3   1e-2   0.5  1-1e-2 1-1e-3 1-1e-4 1-1e-5 1.00000
  0.000  0.000  0.000  0.000  0.000  0.000  0.000  0.000  0.000  0.021  0.025
 
   msw1postfm_sc1_begin, k =       1
   msw1postfm_sc1_end  , k =  183388

 msw1postfm_qmodf_begin, k =       1
 msw1postfm_qmodf_end  , k =  183388
 
 iter_outer = 12 : [Hgwmsw - Hgwmodf] (svat=  76684)= -0.00035 m
 iter_outer = 12 : [Hgwmsw - Hgwmodf] (svat= 129961)=  0.02506 m
 

 Cumulative relative frequency distribution of [Hgwmsw-Hgwmodf](m)
 0.00000  1e-5   1e-4   1e-3   1e-2   0.5  1-1e-2 1-1e-3 1-1e-4 1-1e-5 1.00000
  0.000  0.000  0.000  0.000  0.000  0.000  0.000  0.000  0.000  0.019  0.025
 
   msw1postfm_sc1_begin, k =       1
   msw1postfm_sc1_end  , k =  183388

 msw1postfm_qmodf_begin, k =       1
 msw1postfm_qmodf_end  , k =  183388
 
 iter_outer = 13 : [Hgwmsw - Hgwmodf] (svat=  13383)= -0.00005 m
 iter_outer = 13 : [Hgwmsw - Hgwmodf] (svat= 129961)=  0.02465 m
 

 Cumulative relative frequency distribution of [Hgwmsw-Hgwmodf](m)
 0.00000  1e-5   1e-4   1e-3   1e-2   0.5  1-1e-2 1-1e-3 1-1e-4 1-1e-5 1.00000
  0.000  0.000  0.000  0.000  0.000  0.000  0.000  0.000  0.000  0.018  0.025
 
   msw1postfm_sc1_begin, k =       1
   msw1postfm_sc1_end  , k =  183388

 msw1postfm_qmodf_begin, k =       1
 msw1postfm_qmodf_end  , k =  183388
 
 iter_outer = 14 : [Hgwmsw - Hgwmodf] (svat=  76684)= -0.00025 m
 iter_outer = 14 : [Hgwmsw - Hgwmodf] (svat= 129961)=  0.02425 m
 

 Cumulative relative frequency distribution of [Hgwmsw-Hgwmodf](m)
 0.00000  1e-5   1e-4   1e-3   1e-2   0.5  1-1e-2 1-1e-3 1-1e-4 1-1e-5 1.00000
  0.000  0.000  0.000  0.000  0.000  0.000  0.000  0.000  0.000  0.016  0.024
 
   msw1postfm_sc1_begin, k =       1
   msw1postfm_sc1_end  , k =  183388

 msw1postfm_qmodf_begin, k =       1
 msw1postfm_qmodf_end  , k =  183388
 
 iter_outer = 15 : [Hgwmsw - Hgwmodf] (svat=  77474)= -0.00042 m
 iter_outer = 15 : [Hgwmsw - Hgwmodf] (svat= 129961)=  0.02387 m
 

 Cumulative relative frequency distribution of [Hgwmsw-Hgwmodf](m)
 0.00000  1e-5   1e-4   1e-3   1e-2   0.5  1-1e-2 1-1e-3 1-1e-4 1-1e-5 1.00000
  0.000  0.000  0.000  0.000  0.000  0.000  0.000  0.000  0.000  0.014  0.024
 
   msw1postfm_sc1_begin, k =       1
   msw1postfm_sc1_end  , k =  183388

 msw1postfm_qmodf_begin, k =       1
 msw1postfm_qmodf_end  , k =  183388
 
 iter_outer = 16 : [Hgwmsw - Hgwmodf] (svat=  76583)= -0.00019 m
 iter_outer = 16 : [Hgwmsw - Hgwmodf] (svat= 129961)=  0.02351 m
 

 Cumulative relative frequency distribution of [Hgwmsw-Hgwmodf](m)
 0.00000  1e-5   1e-4   1e-3   1e-2   0.5  1-1e-2 1-1e-3 1-1e-4 1-1e-5 1.00000
  0.000  0.000  0.000  0.000  0.000  0.000  0.000  0.000  0.000  0.014  0.024
 
   msw1postfm_sc1_begin, k =       1
   msw1postfm_sc1_end  , k =  183388

 msw1postfm_qmodf_begin, k =       1
 msw1postfm_qmodf_end  , k =  183388
 
 iter_outer = 17 : [Hgwmsw - Hgwmodf] (svat=  12733)= -0.00005 m
 iter_outer = 17 : [Hgwmsw - Hgwmodf] (svat= 129961)=  0.02315 m
 

 Cumulative relative frequency distribution of [Hgwmsw-Hgwmodf](m)
 0.00000  1e-5   1e-4   1e-3   1e-2   0.5  1-1e-2 1-1e-3 1-1e-4 1-1e-5 1.00000
  0.000  0.000  0.000  0.000  0.000  0.000  0.000  0.000  0.000  0.012  0.023
 
   msw1postfm_sc1_begin, k =       1
   msw1postfm_sc1_end  , k =  183388

 msw1postfm_qmodf_begin, k =       1
 msw1postfm_qmodf_end  , k =  183388
 
 iter_outer = 18 : [Hgwmsw - Hgwmodf] (svat=  83894)= -0.00018 m
 iter_outer = 18 : [Hgwmsw - Hgwmodf] (svat= 129961)=  0.02283 m
 

 Cumulative relative frequency distribution of [Hgwmsw-Hgwmodf](m)
 0.00000  1e-5   1e-4   1e-3   1e-2   0.5  1-1e-2 1-1e-3 1-1e-4 1-1e-5 1.00000
  0.000  0.000  0.000  0.000  0.000  0.000  0.000  0.000  0.000  0.011  0.023
 
   msw1postfm_sc1_begin, k =       1
   msw1postfm_sc1_end  , k =  183388

 msw1postfm_qmodf_begin, k =       1
 msw1postfm_qmodf_end  , k =  183388
 
 iter_outer = 19 : [Hgwmsw - Hgwmodf] (svat=  70349)= -0.00011 m
 iter_outer = 19 : [Hgwmsw - Hgwmodf] (svat= 129961)=  0.02253 m
 

 Cumulative relative frequency distribution of [Hgwmsw-Hgwmodf](m)
 0.00000  1e-5   1e-4   1e-3   1e-2   0.5  1-1e-2 1-1e-3 1-1e-4 1-1e-5 1.00000
  0.000  0.000  0.000  0.000  0.000  0.000  0.000  0.000  0.000  0.010  0.023
 
   msw1postfm_sc1_begin, k =       1
   msw1postfm_sc1_end  , k =  183388

 msw1postfm_qmodf_begin, k =       1
 msw1postfm_qmodf_end  , k =  183388
 
 iter_outer = 20 : [Hgwmsw - Hgwmodf] (svat=  76583)= -0.00015 m
 iter_outer = 20 : [Hgwmsw - Hgwmodf] (svat= 129961)=  0.02223 m
 

 Cumulative relative frequency distribution of [Hgwmsw-Hgwmodf](m)
 0.00000  1e-5   1e-4   1e-3   1e-2   0.5  1-1e-2 1-1e-3 1-1e-4 1-1e-5 1.00000
  0.000  0.000  0.000  0.000  0.000  0.000  0.000  0.000  0.000  0.009  0.022
 

 Smallest phreatic storage coefficient: sc1( 150810)= 0.01000 (m3/m2/m)
 
MODFLOW_end
 
MetaSWAP_finalize&write_begin,tiac =     1.00
msw1bd_begin,   k =       1
 max. water loss,     vcr(  12763)=  -0.00001 m3/m2
 max. water creation, vcr(   7727)=   0.00000 m3/m2
msw1bd_end,     k =  183388
MetaSWAP_finalize&write_end, tiac =     1.00
MetaSWAP_rootzone_update_begin
MetaSWAP_rootzone_update_end  
 
MODFLOW_begin
    Solving:  Stress period:     2    Time step:     1
MODFLOW_end
 
MetaSWAP_begin, tiac =     1.00
>> DO idtsw=1,nudtsw
     msw1top
MetaSWAP_dtsw_begin, tiac =     1.00
 Reading file C:\OD\WS_Mdl\models\NBr\In\CAP\P\NBr1\P_20100103_NBr1.asc 
 Reading file C:\OD\WS_Mdl\models\NBr\In\CAP\PET\NBr1\PET_20100103_NBr1.asc 
 msw1top_begin, k =       1
 msw1top_end,   k =  183388
MetaSWAP_dtsw_end,   tiac =     2.00
<< ENDDO
MetaSWAP_end, tiac =     2.00
 
MODFLOW_begin
 msw1unsa_begin, k        1
 msw1unsa_end,   k   183388
 msw1postfm_qmodf_begin, k =       1
 msw1postfm_qmodf_end  , k =  183388
 
 iter_outer =  1 : [Hgwmsw - Hgwmodf] (svat=  21244)= -0.24891 m
 iter_outer =  1 : [Hgwmsw - Hgwmodf] (svat=  95772)=  0.13011 m
 

 Cumulative relative frequency distribution of [Hgwmsw-Hgwmodf](m)
 0.00000  1e-5   1e-4   1e-3   1e-2   0.5  1-1e-2 1-1e-3 1-1e-4 1-1e-5 1.00000
 -0.248 -0.082 -0.047 -0.022 -0.004  0.000  0.002  0.043  0.081  0.115  0.130
 
   msw1postfm_sc1_begin, k =       1
   msw1postfm_sc1_end  , k =  183388

 msw1postfm_qmodf_begin, k =       1
 msw1postfm_qmodf_end  , k =  183388
 
 iter_outer =  2 : [Hgwmsw - Hgwmodf] (svat=  21243)= -0.05118 m
 iter_outer =  2 : [Hgwmsw - Hgwmodf] (svat=   5909)=  0.04270 m
 

 Cumulative relative frequency distribution of [Hgwmsw-Hgwmodf](m)
 0.00000  1e-5   1e-4   1e-3   1e-2   0.5  1-1e-2 1-1e-3 1-1e-4 1-1e-5 1.00000
 -0.050 -0.034 -0.012 -0.003  0.000  0.000  0.000  0.008  0.023  0.036  0.043
 
   msw1postfm_sc1_begin, k =       1
   msw1postfm_sc1_end  , k =  183388

 msw1postfm_qmodf_begin, k =       1
 msw1postfm_qmodf_end  , k =  183388
 
 iter_outer =  3 : [Hgwmsw - Hgwmodf] (svat=  21243)= -0.03519 m
 iter_outer =  3 : [Hgwmsw - Hgwmodf] (svat=    155)=  0.01398 m
 

 Cumulative relative frequency distribution of [Hgwmsw-Hgwmodf](m)
 0.00000  1e-5   1e-4   1e-3   1e-2   0.5  1-1e-2 1-1e-3 1-1e-4 1-1e-5 1.00000
 -0.034 -0.020 -0.006 -0.001  0.000  0.000  0.000  0.002  0.006  0.011  0.014
 
   msw1postfm_sc1_begin, k =       1
   msw1postfm_sc1_end  , k =  183388

 msw1postfm_qmodf_begin, k =       1
 msw1postfm_qmodf_end  , k =  183388
 
 iter_outer =  4 : [Hgwmsw - Hgwmodf] (svat=  21243)= -0.02227 m
 iter_outer =  4 : [Hgwmsw - Hgwmodf] (svat=  18432)=  0.01631 m
 

 Cumulative relative frequency distribution of [Hgwmsw-Hgwmodf](m)
 0.00000  1e-5   1e-4   1e-3   1e-2   0.5  1-1e-2 1-1e-3 1-1e-4 1-1e-5 1.00000
 -0.021 -0.012 -0.006  0.000  0.000  0.000  0.000  0.001  0.003  0.006  0.016
 
   msw1postfm_sc1_begin, k =       1
   msw1postfm_sc1_end  , k =  183388

 msw1postfm_qmodf_begin, k =       1
 msw1postfm_qmodf_end  , k =  183388
 
 iter_outer =  5 : [Hgwmsw - Hgwmodf] (svat=  21243)= -0.02131 m
 iter_outer =  5 : [Hgwmsw - Hgwmodf] (svat=  18432)=  0.01664 m
 

 Cumulative relative frequency distribution of [Hgwmsw-Hgwmodf](m)
 0.00000  1e-5   1e-4   1e-3   1e-2   0.5  1-1e-2 1-1e-3 1-1e-4 1-1e-5 1.00000
 -0.020 -0.012 -0.006  0.000  0.000  0.000  0.000  0.001  0.003  0.006  0.017
 
   msw1postfm_sc1_begin, k =       1
   msw1postfm_sc1_end  , k =  183388

 msw1postfm_qmodf_begin, k =       1
 msw1postfm_qmodf_end  , k =  183388
 
 iter_outer =  6 : [Hgwmsw - Hgwmodf] (svat=  21243)= -0.02129 m
 iter_outer =  6 : [Hgwmsw - Hgwmodf] (svat=  18432)=  0.01675 m
 

 Cumulative relative frequency distribution of [Hgwmsw-Hgwmodf](m)
 0.00000  1e-5   1e-4   1e-3   1e-2   0.5  1-1e-2 1-1e-3 1-1e-4 1-1e-5 1.00000
 -0.020 -0.012 -0.006  0.000  0.000  0.000  0.000  0.001  0.003  0.006  0.017
 
   msw1postfm_sc1_begin, k =       1
   msw1postfm_sc1_end  , k =  183388

 msw1postfm_qmodf_begin, k =       1
 msw1postfm_qmodf_end  , k =  183388
 
 iter_outer =  7 : [Hgwmsw - Hgwmodf] (svat=  21243)= -0.02128 m
 iter_outer =  7 : [Hgwmsw - Hgwmodf] (svat=  18432)=  0.01671 m
 

 Cumulative relative frequency distribution of [Hgwmsw-Hgwmodf](m)
 0.00000  1e-5   1e-4   1e-3   1e-2   0.5  1-1e-2 1-1e-3 1-1e-4 1-1e-5 1.00000
 -0.020 -0.012 -0.006  0.000  0.000  0.000  0.000  0.001  0.003  0.006  0.017
 
   msw1postfm_sc1_begin, k =       1
   msw1postfm_sc1_end  , k =  183388

 msw1postfm_qmodf_begin, k =       1
 msw1postfm_qmodf_end  , k =  183388
 
 iter_outer =  8 : [Hgwmsw - Hgwmodf] (svat=  21243)= -0.02127 m
 iter_outer =  8 : [Hgwmsw - Hgwmodf] (svat=  18432)=  0.01670 m
 

 Cumulative relative frequency distribution of [Hgwmsw-Hgwmodf](m)
 0.00000  1e-5   1e-4   1e-3   1e-2   0.5  1-1e-2 1-1e-3 1-1e-4 1-1e-5 1.00000
 -0.020 -0.012 -0.006  0.000  0.000  0.000  0.000  0.001  0.003  0.006  0.017
 
   msw1postfm_sc1_begin, k =       1
   msw1postfm_sc1_end  , k =  183388

 msw1postfm_qmodf_begin, k =       1
 msw1postfm_qmodf_end  , k =  183388
 
 iter_outer =  9 : [Hgwmsw - Hgwmodf] (svat=  21243)= -0.02127 m
 iter_outer =  9 : [Hgwmsw - Hgwmodf] (svat=  18432)=  0.01670 m
 

 Cumulative relative frequency distribution of [Hgwmsw-Hgwmodf](m)
 0.00000  1e-5   1e-4   1e-3   1e-2   0.5  1-1e-2 1-1e-3 1-1e-4 1-1e-5 1.00000
 -0.020 -0.012 -0.006  0.000  0.000  0.000  0.000  0.001  0.003  0.006  0.017
 

 Smallest phreatic storage coefficient: sc1( 133111)= 0.01000 (m3/m2/m)
 
MODFLOW_end
 
MetaSWAP_finalize&write_begin,tiac =     2.00
msw1bd_begin,   k =       1
 max. water loss,     vcr(  12763)=  -0.00001 m3/m2
 max. water creation, vcr(   7101)=   0.00000 m3/m2
msw1bd_end,     k =  183388
 msw1sav_begin
 msw1sav_end
MetaSWAP_finalize&write_end, tiac =     2.00
MetaSWAP_rootzone_update_begin
MetaSWAP_rootzone_update_end  
 
MODFLOW_begin
    Solving:  Stress period:     3    Time step:     1
MODFLOW_end
 
MetaSWAP_begin, tiac =     2.00
>> DO idtsw=1,nudtsw
     msw1top
MetaSWAP_dtsw_begin, tiac =     2.00
 Reading file C:\OD\WS_Mdl\models\NBr\In\CAP\P\NBr1\P_20100104_NBr1.asc 
 Reading file C:\OD\WS_Mdl\models\NBr\In\CAP\PET\NBr1\PET_20100104_NBr1.asc 
 msw1top_begin, k =       1
 msw1top_end,   k =  183388
MetaSWAP_dtsw_end,   tiac =     3.00
<< ENDDO
MetaSWAP_end, tiac =     3.00
 
MODFLOW_begin
 msw1unsa_begin, k        1
 msw1unsa_end,   k   183388
 msw1postfm_qmodf_begin, k =       1
 msw1postfm_qmodf_end  , k =  183388
 
 iter_outer =  1 : [Hgwmsw - Hgwmodf] (svat=  81939)= -0.17661 m
 iter_outer =  1 : [Hgwmsw - Hgwmodf] (svat=  96264)=  0.17672 m
 

 Cumulative relative frequency distribution of [Hgwmsw-Hgwmodf](m)
 0.00000  1e-5   1e-4   1e-3   1e-2   0.5  1-1e-2 1-1e-3 1-1e-4 1-1e-5 1.00000
 -0.176 -0.163 -0.097 -0.067 -0.003  0.000  0.002  0.043  0.107  0.158  0.177
 
   msw1postfm_sc1_begin, k =       1
   msw1postfm_sc1_end  , k =  183388

 msw1postfm_qmodf_begin, k =       1
 msw1postfm_qmodf_end  , k =  183388
 
 iter_outer =  2 : [Hgwmsw - Hgwmodf] (svat=    648)= -0.14267 m
 iter_outer =  2 : [Hgwmsw - Hgwmodf] (svat=  65729)=  0.39149 m
 

 Cumulative relative frequency distribution of [Hgwmsw-Hgwmodf](m)
 0.00000  1e-5   1e-4   1e-3   1e-2   0.5  1-1e-2 1-1e-3 1-1e-4 1-1e-5 1.00000
 -0.142 -0.112 -0.052 -0.006  0.000  0.000  0.000  0.058  0.138  0.266  0.391
 
   msw1postfm_sc1_begin, k =       1
   msw1postfm_sc1_end  , k =  183388

 msw1postfm_qmodf_begin, k =       1
 msw1postfm_qmodf_end  , k =  183388
 
 iter_outer =  3 : [Hgwmsw - Hgwmodf] (svat=    648)= -0.08572 m
 iter_outer =  3 : [Hgwmsw - Hgwmodf] (svat=  65729)=  0.22117 m
 

 Cumulative relative frequency distribution of [Hgwmsw-Hgwmodf](m)
 0.00000  1e-5   1e-4   1e-3   1e-2   0.5  1-1e-2 1-1e-3 1-1e-4 1-1e-5 1.00000
 -0.085 -0.078 -0.033 -0.001  0.000  0.000  0.000  0.029  0.083  0.156  0.221
 
   msw1postfm_sc1_begin, k =       1
   msw1postfm_sc1_end  , k =  183388

 msw1postfm_qmodf_begin, k =       1
 msw1postfm_qmodf_end  , k =  183388
 
 iter_outer =  4 : [Hgwmsw - Hgwmodf] (svat=   1239)= -0.05335 m
 iter_outer =  4 : [Hgwmsw - Hgwmodf] (svat=  65729)=  0.10974 m
 

 Cumulative relative frequency distribution of [Hgwmsw-Hgwmodf](m)
 0.00000  1e-5   1e-4   1e-3   1e-2   0.5  1-1e-2 1-1e-3 1-1e-4 1-1e-5 1.00000
 -0.052 -0.049 -0.019  0.000  0.000  0.000  0.000  0.011  0.040  0.072  0.110
 
   msw1postfm_sc1_begin, k =       1
   msw1postfm_sc1_end  , k =  183388

 msw1postfm_qmodf_begin, k =       1
 msw1postfm_qmodf_end  , k =  183388
 
 iter_outer =  5 : [Hgwmsw - Hgwmodf] (svat=   1239)= -0.05298 m
 iter_outer =  5 : [Hgwmsw - Hgwmodf] (svat=  65729)=  0.11145 m
 

 Cumulative relative frequency distribution of [Hgwmsw-Hgwmodf](m)
 0.00000  1e-5   1e-4   1e-3   1e-2   0.5  1-1e-2 1-1e-3 1-1e-4 1-1e-5 1.00000
 -0.052 -0.049 -0.020  0.000  0.000  0.000  0.000  0.011  0.040  0.073  0.111
 
   msw1postfm_sc1_begin, k =       1
   msw1postfm_sc1_end  , k =  183388

 msw1postfm_qmodf_begin, k =       1
 msw1postfm_qmodf_end  , k =  183388
 
 iter_outer =  6 : [Hgwmsw - Hgwmodf] (svat=   1239)= -0.05318 m
 iter_outer =  6 : [Hgwmsw - Hgwmodf] (svat=  65729)=  0.11167 m
 

 Cumulative relative frequency distribution of [Hgwmsw-Hgwmodf](m)
 0.00000  1e-5   1e-4   1e-3   1e-2   0.5  1-1e-2 1-1e-3 1-1e-4 1-1e-5 1.00000
 -0.052 -0.049 -0.020  0.000  0.000  0.000  0.000  0.011  0.040  0.073  0.112
 
   msw1postfm_sc1_begin, k =       1
   msw1postfm_sc1_end  , k =  183388

 msw1postfm_qmodf_begin, k =       1
 msw1postfm_qmodf_end  , k =  183388
 
 iter_outer =  7 : [Hgwmsw - Hgwmodf] (svat=   1239)= -0.05314 m
 iter_outer =  7 : [Hgwmsw - Hgwmodf] (svat=  65729)=  0.11166 m
 

 Cumulative relative frequency distribution of [Hgwmsw-Hgwmodf](m)
 0.00000  1e-5   1e-4   1e-3   1e-2   0.5  1-1e-2 1-1e-3 1-1e-4 1-1e-5 1.00000
 -0.052 -0.049 -0.020  0.000  0.000  0.000  0.000  0.011  0.040  0.073  0.112
 

 Smallest phreatic storage coefficient: sc1( 125671)= 0.01000 (m3/m2/m)
 
MODFLOW_end
 
MetaSWAP_finalize&write_begin,tiac =     3.00
msw1bd_begin,   k =       1
 max. water loss,     vcr(  12763)=  -0.00002 m3/m2
 max. water creation, vcr( 168938)=   0.00000 m3/m2
msw1bd_end,     k =  183388
MetaSWAP_finalize&write_end, tiac =     3.00
MetaSWAP_rootzone_update_begin
MetaSWAP_rootzone_update_end  
 
MODFLOW_begin
    Solving:  Stress period:     4    Time step:     1
MODFLOW_end
 
MetaSWAP_begin, tiac =     3.00
>> DO idtsw=1,nudtsw
     msw1top
MetaSWAP_dtsw_begin, tiac =     3.00
 Reading file C:\OD\WS_Mdl\models\NBr\In\CAP\P\NBr1\P_20100105_NBr1.asc 
 Reading file C:\OD\WS_Mdl\models\NBr\In\CAP\PET\NBr1\PET_20100105_NBr1.asc 
 msw1top_begin, k =       1
 msw1top_end,   k =  183388
MetaSWAP_dtsw_end,   tiac =     4.00
<< ENDDO
MetaSWAP_end, tiac =     4.00
 
MODFLOW_begin
 msw1unsa_begin, k        1
 msw1unsa_end,   k   183388
 msw1postfm_qmodf_begin, k =       1
 msw1postfm_qmodf_end  , k =  183388
 
 iter_outer =  1 : [Hgwmsw - Hgwmodf] (svat= 137633)= -0.33170 m
 iter_outer =  1 : [Hgwmsw - Hgwmodf] (svat=  39166)=  0.07383 m
 

 Cumulative relative frequency distribution of [Hgwmsw-Hgwmodf](m)
 0.00000  1e-5   1e-4   1e-3   1e-2   0.5  1-1e-2 1-1e-3 1-1e-4 1-1e-5 1.00000
 -0.331 -0.077 -0.040 -0.019 -0.001  0.000  0.000  0.007  0.025  0.052  0.074
 
   msw1postfm_sc1_begin, k =       1
   msw1postfm_sc1_end  , k =  183388

 msw1postfm_qmodf_begin, k =       1
 msw1postfm_qmodf_end  , k =  183388
 
 iter_outer =  2 : [Hgwmsw - Hgwmodf] (svat=  87901)= -0.16677 m
 iter_outer =  2 : [Hgwmsw - Hgwmodf] (svat=  91862)=  0.06575 m
 

 Cumulative relative frequency distribution of [Hgwmsw-Hgwmodf](m)
 0.00000  1e-5   1e-4   1e-3   1e-2   0.5  1-1e-2 1-1e-3 1-1e-4 1-1e-5 1.00000
 -0.166 -0.165 -0.108 -0.015  0.000  0.000  0.000  0.003  0.013  0.044  0.066
 
   msw1postfm_sc1_begin, k =       1
   msw1postfm_sc1_end  , k =  183388

 msw1postfm_qmodf_begin, k =       1
 msw1postfm_qmodf_end  , k =  183388
 
 iter_outer =  3 : [Hgwmsw - Hgwmodf] (svat= 110206)= -0.11927 m
 iter_outer =  3 : [Hgwmsw - Hgwmodf] (svat=  91862)=  0.04333 m
 

 Cumulative relative frequency distribution of [Hgwmsw-Hgwmodf](m)
 0.00000  1e-5   1e-4   1e-3   1e-2   0.5  1-1e-2 1-1e-3 1-1e-4 1-1e-5 1.00000
 -0.118 -0.112 -0.076 -0.007  0.000  0.000  0.000  0.001  0.006  0.028  0.043
 
   msw1postfm_sc1_begin, k =       1
   msw1postfm_sc1_end  , k =  183388

 msw1postfm_qmodf_begin, k =       1
 msw1postfm_qmodf_end  , k =  183388
 
 iter_outer =  4 : [Hgwmsw - Hgwmodf] (svat=  80977)= -0.07221 m
 iter_outer =  4 : [Hgwmsw - Hgwmodf] (svat=  81099)=  0.03425 m
 

 Cumulative relative frequency distribution of [Hgwmsw-Hgwmodf](m)
 0.00000  1e-5   1e-4   1e-3   1e-2   0.5  1-1e-2 1-1e-3 1-1e-4 1-1e-5 1.00000
 -0.071 -0.070 -0.049 -0.005  0.000  0.000  0.000  0.001  0.005  0.021  0.034
 
   msw1postfm_sc1_begin, k =       1
   msw1postfm_sc1_end  , k =  183388

 msw1postfm_qmodf_begin, k =       1
 msw1postfm_qmodf_end  , k =  183388
 
 iter_outer =  5 : [Hgwmsw - Hgwmodf] (svat=  80977)= -0.07214 m
 iter_outer =  5 : [Hgwmsw - Hgwmodf] (svat=  81099)=  0.03427 m
 

 Cumulative relative frequency distribution of [Hgwmsw-Hgwmodf](m)
 0.00000  1e-5   1e-4   1e-3   1e-2   0.5  1-1e-2 1-1e-3 1-1e-4 1-1e-5 1.00000
 -0.071 -0.071 -0.049 -0.005  0.000  0.000  0.000  0.001  0.005  0.021  0.034
 
   msw1postfm_sc1_begin, k =       1
   msw1postfm_sc1_end  , k =  183388

 msw1postfm_qmodf_begin, k =       1
 msw1postfm_qmodf_end  , k =  183388
 
 iter_outer =  6 : [Hgwmsw - Hgwmodf] (svat=  80977)= -0.07218 m
 iter_outer =  6 : [Hgwmsw - Hgwmodf] (svat=  81099)=  0.03426 m
 

 Cumulative relative frequency distribution of [Hgwmsw-Hgwmodf](m)
 0.00000  1e-5   1e-4   1e-3   1e-2   0.5  1-1e-2 1-1e-3 1-1e-4 1-1e-5 1.00000
 -0.071 -0.071 -0.049 -0.005  0.000  0.000  0.000  0.001  0.005  0.021  0.034
 

 Smallest phreatic storage coefficient: sc1(  55684)= 0.01000 (m3/m2/m)
 
MODFLOW_end
 
MetaSWAP_finalize&write_begin,tiac =     4.00
msw1bd_begin,   k =       1
 max. water loss,     vcr(  12763)=  -0.00001 m3/m2
 max. water creation, vcr(   6477)=   0.00000 m3/m2
msw1bd_end,     k =  183388
MetaSWAP_finalize&write_end, tiac =     4.00
MetaSWAP_rootzone_update_begin
MetaSWAP_rootzone_update_end  
 
MODFLOW_begin
    Solving:  Stress period:     5    Time step:     1
MODFLOW_end
 
MetaSWAP_begin, tiac =     4.00
>> DO idtsw=1,nudtsw
     msw1top
MetaSWAP_dtsw_begin, tiac =     4.00
 Reading file C:\OD\WS_Mdl\models\NBr\In\CAP\P\NBr1\P_20100106_NBr1.asc 
 Reading file C:\OD\WS_Mdl\models\NBr\In\CAP\PET\NBr1\PET_20100106_NBr1.asc 
 msw1top_begin, k =       1
 msw1top_end,   k =  183388
MetaSWAP_dtsw_end,   tiac =     5.00
<< ENDDO
MetaSWAP_end, tiac =     5.00
 
MODFLOW_begin
 msw1unsa_begin, k        1
 msw1unsa_end,   k   183388
 msw1postfm_qmodf_begin, k =       1
 msw1postfm_qmodf_end  , k =  183388
 
[...]
 Processing HEAD_20100226000000_L11 ...
 Processing HEAD_20100226000000_L12 ...
 Processing HEAD_20100226000000_L13 ...
 Processing HEAD_20100226000000_L14 ...
 Processing HEAD_20100226000000_L15 ...
 Processing HEAD_20100226000000_L16 ...
 Processing HEAD_20100226000000_L17 ...
 Processing HEAD_20100226000000_L18 ...
 Processing HEAD_20100226000000_L19 ...
 Processing HEAD_20100226000000_L20 ...
 Processing HEAD_20100226000000_L21 ...
 Processing HEAD_20100226000000_L22 ...
 Processing HEAD_20100226000000_L23 ...
 Processing HEAD_20100226000000_L24 ...
 Processing HEAD_20100226000000_L25 ...
 Processing HEAD_20100226000000_L26 ...
 Processing HEAD_20100226000000_L27 ...
 Processing HEAD_20100226000000_L28 ...
 Processing HEAD_20100226000000_L29 ...
 Processing HEAD_20100226000000_L30 ...
 Processing HEAD_20100226000000_L31 ...
 Processing HEAD_20100226000000_L32 ...
 Processing HEAD_20100226000000_L33 ...
 Processing HEAD_20100226000000_L34 ...
 Processing HEAD_20100226000000_L35 ...
 Processing HEAD_20100226000000_L36 ...
 Processing HEAD_20100226000000_L37 ...
 Processing HEAD_20100227000000_L1 ...
 Processing HEAD_20100227000000_L2 ...
 Processing HEAD_20100227000000_L3 ...
 Processing HEAD_20100227000000_L4 ...
 Processing HEAD_20100227000000_L5 ...
 Processing HEAD_20100227000000_L6 ...
 Processing HEAD_20100227000000_L7 ...
 Processing HEAD_20100227000000_L8 ...
 Processing HEAD_20100227000000_L9 ...
 Processing HEAD_20100227000000_L10 ...
 Processing HEAD_20100227000000_L11 ...
 Processing HEAD_20100227000000_L12 ...
 Processing HEAD_20100227000000_L13 ...
 Processing HEAD_20100227000000_L14 ...
 Processing HEAD_20100227000000_L15 ...
 Processing HEAD_20100227000000_L16 ...
 Processing HEAD_20100227000000_L17 ...
 Processing HEAD_20100227000000_L18 ...
 Processing HEAD_20100227000000_L19 ...
 Processing HEAD_20100227000000_L20 ...
 Processing HEAD_20100227000000_L21 ...
 Processing HEAD_20100227000000_L22 ...
 Processing HEAD_20100227000000_L23 ...
 Processing HEAD_20100227000000_L24 ...
 Processing HEAD_20100227000000_L25 ...
 Processing HEAD_20100227000000_L26 ...
 Processing HEAD_20100227000000_L27 ...
 Processing HEAD_20100227000000_L28 ...
 Processing HEAD_20100227000000_L29 ...
 Processing HEAD_20100227000000_L30 ...
 Processing HEAD_20100227000000_L31 ...
 Processing HEAD_20100227000000_L32 ...
 Processing HEAD_20100227000000_L33 ...
 Processing HEAD_20100227000000_L34 ...
 Processing HEAD_20100227000000_L35 ...
 Processing HEAD_20100227000000_L36 ...
 Processing HEAD_20100227000000_L37 ...
 Processing HEAD_20100228000000_L1 ...
 Processing HEAD_20100228000000_L2 ...
 Processing HEAD_20100228000000_L3 ...
 Processing HEAD_20100228000000_L4 ...
 Processing HEAD_20100228000000_L5 ...
 Processing HEAD_20100228000000_L6 ...
 Processing HEAD_20100228000000_L7 ...
 Processing HEAD_20100228000000_L8 ...
 Processing HEAD_20100228000000_L9 ...
 Processing HEAD_20100228000000_L10 ...
 Processing HEAD_20100228000000_L11 ...
 Processing HEAD_20100228000000_L12 ...
 Processing HEAD_20100228000000_L13 ...
 Processing HEAD_20100228000000_L14 ...
 Processing HEAD_20100228000000_L15 ...
 Processing HEAD_20100228000000_L16 ...
 Processing HEAD_20100228000000_L17 ...
 Processing HEAD_20100228000000_L18 ...
 Processing HEAD_20100228000000_L19 ...
 Processing HEAD_20100228000000_L20 ...
 Processing HEAD_20100228000000_L21 ...
 Processing HEAD_20100228000000_L22 ...
 Processing HEAD_20100228000000_L23 ...
 Processing HEAD_20100228000000_L24 ...
 Processing HEAD_20100228000000_L25 ...
 Processing HEAD_20100228000000_L26 ...
 Processing HEAD_20100228000000_L27 ...
 Processing HEAD_20100228000000_L28 ...
 Processing HEAD_20100228000000_L29 ...
 Processing HEAD_20100228000000_L30 ...
 Processing HEAD_20100228000000_L31 ...
 Processing HEAD_20100228000000_L32 ...
 Processing HEAD_20100228000000_L33 ...
 Processing HEAD_20100228000000_L34 ...
 Processing HEAD_20100228000000_L35 ...
 Processing HEAD_20100228000000_L36 ...
 Processing HEAD_20100228000000_L37 ...
BDG=.\GWF_1\MODELOUTPUT\BUDGET\BUDGET.CBC
 Processing FLOW-JA-FACE_20100101000000_L* ...
 Processing WEL_20100101000000_L* ...
 Processing DRN_20100101000000_L* ...
 Processing FLOW-JA-FACE_20100102000000_L* ...
 Processing WEL_20100102000000_L* ...
 Processing DRN_20100102000000_L* ...
 Processing FLOW-JA-FACE_20100103000000_L* ...
 Processing WEL_20100103000000_L* ...
 Processing DRN_20100103000000_L* ...
 Processing FLOW-JA-FACE_20100104000000_L* ...
 Processing WEL_20100104000000_L* ...
 Processing DRN_20100104000000_L* ...
 Processing FLOW-JA-FACE_20100105000000_L* ...
 Processing WEL_20100105000000_L* ...
 Processing DRN_20100105000000_L* ...
 Processing FLOW-JA-FACE_20100106000000_L* ...
 Processing WEL_20100106000000_L* ...
 Processing DRN_20100106000000_L* ...
 Processing FLOW-JA-FACE_20100107000000_L* ...
 Processing WEL_20100107000000_L* ...
 Processing DRN_20100107000000_L* ...
 Processing FLOW-JA-FACE_20100108000000_L* ...
 Processing WEL_20100108000000_L* ...
 Processing DRN_20100108000000_L* ...
 Processing FLOW-JA-FACE_20100109000000_L* ...
 Processing WEL_20100109000000_L* ...
 Processing DRN_20100109000000_L* ...
 Processing FLOW-JA-FACE_20100110000000_L* ...
 Processing WEL_20100110000000_L* ...
 Processing DRN_20100110000000_L* ...
 Processing FLOW-JA-FACE_20100111000000_L* ...
 Processing WEL_20100111000000_L* ...
 Processing DRN_20100111000000_L* ...
 Processing FLOW-JA-FACE_20100112000000_L* ...
 Processing WEL_20100112000000_L* ...
 Processing DRN_20100112000000_L* ...
 Processing FLOW-JA-FACE_20100113000000_L* ...
 Processing WEL_20100113000000_L* ...
 Processing DRN_20100113000000_L* ...
 Processing FLOW-JA-FACE_20100114000000_L* ...
 Processing WEL_20100114000000_L* ...
 Processing DRN_20100114000000_L* ...
 Processing FLOW-JA-FACE_20100115000000_L* ...
 Processing WEL_20100115000000_L* ...
 Processing DRN_20100115000000_L* ...
 Processing FLOW-JA-FACE_20100116000000_L* ...
 Processing WEL_20100116000000_L* ...
 Processing DRN_20100116000000_L* ...
 Processing FLOW-JA-FACE_20100117000000_L* ...
 Processing WEL_20100117000000_L* ...
 Processing DRN_20100117000000_L* ...
 Processing FLOW-JA-FACE_20100118000000_L* ...
 Processing WEL_20100118000000_L* ...
 Processing DRN_20100118000000_L* ...
 Processing FLOW-JA-FACE_20100119000000_L* ...
 Processing WEL_20100119000000_L* ...
 Processing DRN_20100119000000_L* ...
 Processing FLOW-JA-FACE_20100120000000_L* ...
 Processing WEL_20100120000000_L* ...
 Processing DRN_20100120000000_L* ...
 Processing FLOW-JA-FACE_20100121000000_L* ...
 Processing WEL_20100121000000_L* ...
 Processing DRN_20100121000000_L* ...
 Processing FLOW-JA-FACE_20100122000000_L* ...
 Processing WEL_20100122000000_L* ...
 Processing DRN_20100122000000_L* ...
 Processing FLOW-JA-FACE_20100123000000_L* ...
 Processing WEL_20100123000000_L* ...
 Processing DRN_20100123000000_L* ...
 Processing FLOW-JA-FACE_20100124000000_L* ...
 Processing WEL_20100124000000_L* ...
 Processing DRN_20100124000000_L* ...
 Processing FLOW-JA-FACE_20100125000000_L* ...
 Processing WEL_20100125000000_L* ...
 Processing DRN_20100125000000_L* ...
 Processing FLOW-JA-FACE_20100126000000_L* ...
 Processing WEL_20100126000000_L* ...
 Processing DRN_20100126000000_L* ...
 Processing FLOW-JA-FACE_20100127000000_L* ...
 Processing WEL_20100127000000_L* ...
 Processing DRN_20100127000000_L* ...
 Processing FLOW-JA-FACE_20100128000000_L* ...
 Processing WEL_20100128000000_L* ...
 Processing DRN_20100128000000_L* ...
 Processing FLOW-JA-FACE_20100129000000_L* ...
 Processing WEL_20100129000000_L* ...
 Processing DRN_20100129000000_L* ...
 Processing FLOW-JA-FACE_20100130000000_L* ...
 Processing WEL_20100130000000_L* ...
 Processing DRN_20100130000000_L* ...
 Processing FLOW-JA-FACE_20100131000000_L* ...
 Processing WEL_20100131000000_L* ...
 Processing DRN_20100131000000_L* ...
 Processing FLOW-JA-FACE_20100201000000_L* ...
 Processing WEL_20100201000000_L* ...
 Processing DRN_20100201000000_L* ...
 Processing FLOW-JA-FACE_20100202000000_L* ...
 Processing WEL_20100202000000_L* ...
 Processing DRN_20100202000000_L* ...
 Processing FLOW-JA-FACE_20100203000000_L* ...
 Processing WEL_20100203000000_L* ...
 Processing DRN_20100203000000_L* ...
 Processing FLOW-JA-FACE_20100204000000_L* ...
 Processing WEL_20100204000000_L* ...
 Processing DRN_20100204000000_L* ...
 Processing FLOW-JA-FACE_20100205000000_L* ...
 Processing WEL_20100205000000_L* ...
 Processing DRN_20100205000000_L* ...
 Processing FLOW-JA-FACE_20100206000000_L* ...
 Processing WEL_20100206000000_L* ...
 Processing DRN_20100206000000_L* ...
 Processing FLOW-JA-FACE_20100207000000_L* ...
 Processing WEL_20100207000000_L* ...
 Processing DRN_20100207000000_L* ...
 Processing FLOW-JA-FACE_20100208000000_L* ...
 Processing WEL_20100208000000_L* ...
 Processing DRN_20100208000000_L* ...
 Processing FLOW-JA-FACE_20100209000000_L* ...
 Processing WEL_20100209000000_L* ...
 Processing DRN_20100209000000_L* ...
 Processing FLOW-JA-FACE_20100210000000_L* ...
 Processing WEL_20100210000000_L* ...
 Processing DRN_20100210000000_L* ...
 Processing FLOW-JA-FACE_20100211000000_L* ...
 Processing WEL_20100211000000_L* ...
 Processing DRN_20100211000000_L* ...
 Processing FLOW-JA-FACE_20100212000000_L* ...
 Processing WEL_20100212000000_L* ...
 Processing DRN_20100212000000_L* ...
 Processing FLOW-JA-FACE_20100213000000_L* ...
 Processing WEL_20100213000000_L* ...
 Processing DRN_20100213000000_L* ...
 Processing FLOW-JA-FACE_20100214000000_L* ...
 Processing WEL_20100214000000_L* ...
 Processing DRN_20100214000000_L* ...
 Processing FLOW-JA-FACE_20100215000000_L* ...
 Processing WEL_20100215000000_L* ...
 Processing DRN_20100215000000_L* ...
 Processing FLOW-JA-FACE_20100216000000_L* ...
 Processing WEL_20100216000000_L* ...
 Processing DRN_20100216000000_L* ...
 Processing FLOW-JA-FACE_20100217000000_L* ...
 Processing WEL_20100217000000_L* ...
 Processing DRN_20100217000000_L* ...
 Processing FLOW-JA-FACE_20100218000000_L* ...
 Processing WEL_20100218000000_L* ...
 Processing DRN_20100218000000_L* ...
 Processing FLOW-JA-FACE_20100219000000_L* ...
 Processing WEL_20100219000000_L* ...
 Processing DRN_20100219000000_L* ...
 Processing FLOW-JA-FACE_20100220000000_L* ...
 Processing WEL_20100220000000_L* ...
 Processing DRN_20100220000000_L* ...
 Processing FLOW-JA-FACE_20100221000000_L* ...
 Processing WEL_20100221000000_L* ...
 Processing DRN_20100221000000_L* ...
 Processing FLOW-JA-FACE_20100222000000_L* ...
 Processing WEL_20100222000000_L* ...
 Processing DRN_20100222000000_L* ...
 Processing FLOW-JA-FACE_20100223000000_L* ...
 Processing WEL_20100223000000_L* ...
 Processing DRN_20100223000000_L* ...
 Processing FLOW-JA-FACE_20100224000000_L* ...
 Processing WEL_20100224000000_L* ...
 Processing DRN_20100224000000_L* ...
 Processing FLOW-JA-FACE_20100225000000_L* ...
 Processing WEL_20100225000000_L* ...
 Processing DRN_20100225000000_L* ...
 Processing FLOW-JA-FACE_20100226000000_L* ...
 Processing WEL_20100226000000_L* ...
 Processing DRN_20100226000000_L* ...
 Processing FLOW-JA-FACE_20100227000000_L* ...
 Processing WEL_20100227000000_L* ...
 Processing DRN_20100227000000_L* ...
 Processing FLOW-JA-FACE_20100228000000_L* ...
 Processing WEL_20100228000000_L* ...
 Processing DRN_20100228000000_L* ...

iMOD removed tmp-folder:
  C:\OD\WS_Mdl\models\NBr\Sim\NBr26\IMOD_TMP\BATCH1

[Thu Jul  3 16:42:57 2025]
Finished jobid: 1 (Rule: Sim)
6 of 10 steps (60%) done
Select jobs to execute...
Execute 2 jobs...

[Thu Jul  3 16:42:57 2025]
localrule GXG:
    input: C:/OD/WS_Mdl/models/NBr/code/snakemake/temp/Log_Sim_done_NBr26
    output: C:/OD/WS_Mdl/models/NBr/code/snakemake/temp/Log_GXG_done_NBr26
    jobid: 9
    reason: Missing output files: C:/OD/WS_Mdl/models/NBr/code/snakemake/temp/Log_GXG_done_NBr26; Input files updated by another job: C:/OD/WS_Mdl/models/NBr/code/snakemake/temp/Log_Sim_done_NBr26
    resources: tmpdir=C:\Users\Karam014\AppData\Local\Temp
Shell command: None

[Thu Jul  3 16:42:57 2025]
localrule PRJ_to_TIF:
    input: C:/OD/WS_Mdl/models/NBr/code/snakemake/temp/Log_Sim_done_NBr26
    output: C:/OD/WS_Mdl/models/NBr/code/snakemake/temp/Log_PRJ_to_TIF_done_NBr26
    jobid: 8
    reason: Missing output files: C:/OD/WS_Mdl/models/NBr/code/snakemake/temp/Log_PRJ_to_TIF_done_NBr26; Input files updated by another job: C:/OD/WS_Mdl/models/NBr/code/snakemake/temp/Log_Sim_done_NBr26
    resources: tmpdir=C:\Users\Karam014\AppData\Local\Temp
Shell command: None
[Thu Jul  3 16:43:11 2025]
Finished jobid: 8 (Rule: PRJ_to_TIF)
7 of 10 steps (70%) done
[Thu Jul  3 16:43:39 2025]
Finished jobid: 9 (Rule: GXG)
8 of 10 steps (80%) done
Select jobs to execute...
Execute 1 jobs...

[Thu Jul  3 16:43:39 2025]
localrule Up_MM:
    input: C:/OD/WS_Mdl/models/NBr/code/snakemake/temp/Log_PRJ_to_TIF_done_NBr26, C:/OD/WS_Mdl/models/NBr/code/snakemake/temp/Log_GXG_done_NBr26
    output: C:/OD/WS_Mdl/models/NBr/code/snakemake/temp/Log_Up_MM_done_NBr26
    jobid: 7
    reason: Missing output files: C:/OD/WS_Mdl/models/NBr/code/snakemake/temp/Log_Up_MM_done_NBr26; Input files updated by another job: C:/OD/WS_Mdl/models/NBr/code/snakemake/temp/Log_PRJ_to_TIF_done_NBr26, C:/OD/WS_Mdl/models/NBr/code/snakemake/temp/Log_GXG_done_NBr26
    resources: tmpdir=C:\Users\Karam014\AppData\Local\Temp
Shell command: None
[Thu Jul  3 16:43:41 2025]
Finished jobid: 7 (Rule: Up_MM)
9 of 10 steps (90%) done
Removing temporary output C:/OD/WS_Mdl/models/NBr/code/snakemake/temp/Log_PRJ_to_TIF_done_NBr26.
Removing temporary output C:/OD/WS_Mdl/models/NBr/code/snakemake/temp/Log_GXG_done_NBr26.
Select jobs to execute...
Execute 1 jobs...

[Thu Jul  3 16:43:41 2025]
localrule all:
    input: C:/OD/WS_Mdl/models/NBr/code/snakemake/temp/Log_Sim_done_NBr26, C:/OD/WS_Mdl/models/NBr/code/snakemake/temp/Log_Up_MM_done_NBr26
    jobid: 0
    reason: Input files updated by another job: C:/OD/WS_Mdl/models/NBr/code/snakemake/temp/Log_Up_MM_done_NBr26, C:/OD/WS_Mdl/models/NBr/code/snakemake/temp/Log_Sim_done_NBr26
    resources: tmpdir=C:\Users\Karam014\AppData\Local\Temp
Shell command: None
[Thu Jul  3 16:43:41 2025]
Finished jobid: 0 (Rule: all)
10 of 10 steps (100%) done
Complete log(s): C:\OD\WS_Mdl\models\NBr\.snakemake\log\2025-07-03T162054.089951.snakemake.log
🟢 - INI file C:/OD/WS_Mdl\models/NBr\code/Mdl_Prep/Mdl_Prep_NBr26.ini read successfully. Dictionary created with 21 keys.
********************************************************************************

Running add_OBS ...
🟢 - INI file C:/OD/WS_Mdl\models/NBr\code/Mdl_Prep/Mdl_Prep_NBr26.ini read successfully. Dictionary created with 21 keys.
🟢 - IPF file C:\OD\WS_Mdl\models\NBr\In\OBS\NBr8\ijkset_selectie_NBr8.ipf read successfully. DataFrame created with 9678 rows and 11 columns.
🟢 - C:/OD/WS_Mdl\models/NBr\Sim/NBr26\GWF_1/MODELINPUT/NBr26.OBS6 has been added successfully!

end_of_transmission
********************************************************************************

********************************************************************************

*** NBr26 *** - HD_IDF_GXG_to_TIF

🟢 - INI file C:/OD/WS_Mdl\models/NBr\code/Mdl_Prep/Mdl_Prep_NBr26.ini read successfully. Dictionary created with 21 keys.
🟢 - model dimensions extracted from C:/OD/WS_Mdl\models/NBr\code/Mdl_Prep/Mdl_Prep_NBr26.ini.
 --- Reading PRJ Packages into DF ---
	(cap)  	...	🟢
	extra  	...	🟡
	(bnd)  	...	🟢
	(top)  	...	🟢
	(bot)  	...	🟢
	(khv)  	...	🟢
	(kva)  	...	🟢
	(shd)  	...	🟢
	(sto)  	...	🟢
	(spy)  	...	🟢
	(hfb)  	...	🟢
	(drn)  	...	🟢
	(wel)  	...	🟢
	(pcg)  	...	🟡
	(chd)  	...	🟢
	periods	...	🟡
	species	...	🟡
🟢🟢🟢
 ----------------------------------------------------------------------------------------------------

 --- Converting time-independant package IDF files to TIF ---
	0 , boundary                       ... 🔴 - CAP_boundary_NBr1.tif already exists. Skipping.
	1 , landuse                        ... 🔴 - CAP_landuse_NBr1.tif already exists. Skipping.
	2 , rootzone_thickness             ... 🔴 - CAP_rootzone_thickness_NBr1.tif already exists. Skipping.
	3 , soil_physical_unit             ... 🔴 - CAP_soil_physical_unit_NBr1.tif already exists. Skipping.
	4 , meteo_station_number           ... 🔴 - CAP_meteo_station_number_NBr1.tif already exists. Skipping.
	5 , surface_elevation              ... 🔴 - CAP_surface_elevation_NBr1.tif already exists. Skipping.
	6 , artificial_recharge            ... 🔴 - CAP_artificial_recharge_NBr1.tif already exists. Skipping.
	7 , artificial_recharge_layer      ... 🔴 - CAP_artificial_recharge_layer_NBr1.tif already exists. Skipping.
	8 , wetted_area                    ... 🔴 - CAP_wetted_area_NBr1.tif already exists. Skipping.
	9 , urban_area                     ... 🔴 - CAP_urban_area_NBr1.tif already exists. Skipping.
	10, ibound                         ... 🔴 - BND_ibound_NBr1.tif already exists. Skipping.
	11, top                            ... 🔴 - TOP_top_NBr1.tif already exists. Skipping.
	12, bottom                         ... 🔴 - BOT_bottom_NBr1.tif already exists. Skipping.
	13, kh                             ... 🔴 - KHV_kh_NBr1.tif already exists. Skipping.
	14, head                           ... 🔴 - SHD_head_NBr8.tif already exists. Skipping.

 --- Converting time dependant packages ---
	DRN_conductance                ... 🔴 - DRN_Cond_buis_NBr1.tif already exists. Skipping.
	DRN_conductance                ... 🔴 - DRN_Cond_MV_25M_MODEL_NBr1.tif already exists. Skipping.
	DRN_conductance                ... 🔴 - DRN_Cond_ONTWATERING_BELGIE_NBr1.tif already exists. Skipping.
	DRN_conductance                ... 🔴 - DRN_Cond_buis_NBr1.tif already exists. Skipping.
	DRN_conductance                ... 🔴 - DRN_Cond_MV_25M_MODEL_NBr1.tif already exists. Skipping.
	DRN_conductance                ... 🔴 - DRN_Cond_ONTWATERING_BELGIE_NBr1.tif already exists. Skipping.
	DRN_elevation                  ... 🔴 - DRN_Elv_buis_NBr1.tif already exists. Skipping.
	DRN_elevation                  ... 🔴 - DRN_Elv_MV_25M_NBr1.tif already exists. Skipping.
	DRN_elevation                  ... 🔴 - DRN_Elv_BELGIE_NBr1.tif already exists. Skipping.
	DRN_elevation                  ... 🔴 - DRN_Elv_buis_NBr1.tif already exists. Skipping.
	DRN_elevation                  ... 🔴 - DRN_Elv_MV_25M_NBr1.tif already exists. Skipping.
	DRN_elevation                  ... 🔴 - DRN_Elv_BELGIE_NBr1.tif already exists. Skipping.
	WEL_Ind_Aa_and_Maas_T_NBr1.ipf ... 🔴 - file WEL_Ind_Aa_and_Maas_T_NBr1.gpkg exists. Skipping.
	WEL_Ind_Br_T_NBr1.ipf          ... 🔴 - file WEL_Ind_Br_T_NBr1.gpkg exists. Skipping.
	WEL_Br_Wa_T_NBr1.ipf           ... 🔴 - file WEL_Br_Wa_T_NBr1.gpkg exists. Skipping.
 --- Converting calculated inputs to TIF ---
	thickness                      ... 🔴 - Thk_NBr1.tif already exists. Skipping.
	transmissivity                 ... 🔴 - T_NBr1.tif already exists. Skipping.

end_of_transmission
********************************************************************************

	 L1 🟢 - Elapsed time (from start): 0:00:36.039433
🟢🟢🟢 | Total elapsed: 0:00:36.704187

end_of_transmission
********************************************************************************

********************************************************************************

 *****   Creating MM for NBr26   ***** 
Copied QGIS project from C:/OD/WS_Mdl\models/NBr\PoP\Out\NBr18\MM-NBr18.qgz to C:/OD/WS_Mdl\models/NBr\PoP\Out\NBr26\MM-NBr26.qgz.
Updating layer path ...

🟢🟢🟢 | MM for NBr26 has been updated.

end_of_transmission
********************************************************************************

