Assuming unrestricted shared filesystem usage.
host: UU120516
Building DAG of jobs...
Provided cores: 10
Rules claiming more threads will be scaled down.
Job stats:
job                 count
----------------  -------
Mdl_Prep                1
Sim                     1
add_DRN_OBS_copy        1
add_HD_OBS_WEL          1
add_RIV_OBS_copy        1
all                     1
freeze_pixi_env         1
log_Init                1
total                   8

Select jobs to execute...
Execute 2 jobs...

[Mon Feb 16 18:05:44 2026]
localrule log_Init:
    output: G:/models/NBr/code/snakemake/temp/Log_init_NBr49
    jobid: 4
    reason: Missing output files: G:/models/NBr/code/snakemake/temp/Log_init_NBr49
    resources: tmpdir=C:\Users\Karam014\AppData\Local\Temp
Shell command: None

[Mon Feb 16 18:05:44 2026]
localrule freeze_pixi_env:
    input: G:/pixi.toml, G:/pixi.lock, G:/code/WS_Mdl
    output: G:/models/NBr/code/snakemake/temp/Log_freeze_env_NBr49
    jobid: 7
    reason: Missing output files: G:/models/NBr/code/snakemake/temp/Log_freeze_env_NBr49
    resources: tmpdir=C:\Users\Karam014\AppData\Local\Temp
Shell command: None
[Mon Feb 16 18:05:44 2026]
Finished jobid: 4 (Rule: log_Init)
1 of 8 steps (12%) done
Select jobs to execute...
Execute 1 jobs...

[Mon Feb 16 18:05:44 2026]
localrule Mdl_Prep:
    input: G:/models/NBr/code/snakemake/temp/Log_init_NBr49, code/Mdl_Prep/Mdl_Prep_NBr49.bat, code/Mdl_Prep/Mdl_Prep_NBr49.ini, In/PRJ/NBr49.prj
    output: G:/models/NBr/Sim/NBr49/MFSIM.NAM
    jobid: 3
    reason: Updated input files: code/Mdl_Prep/Mdl_Prep_NBr49.ini; Input files updated by another job: G:/models/NBr/code/snakemake/temp/Log_init_NBr49
    resources: tmpdir=C:\Users\Karam014\AppData\Local\Temp
Shell command: call code/Mdl_Prep/Mdl_Prep_NBr49.bat
[Mon Feb 16 18:05:44 2026]
Finished jobid: 7 (Rule: freeze_pixi_env)
2 of 8 steps (25%) done

 ==================================================
 Running iMOD: 
  exe: G:\software\iMOD5\imod_r.exe
  dir: G:\models\NBr\code\Mdl_Prep
 ==================================================


EXECUTING FUNCTION >>> RUNFILE <<<


iMODBATCH using tmp-folder:
  G:\models\NBr\code\Mdl_Prep\IMOD_TMP\BATCH1

PRJFILE_IN=..\..\In\PRJ\NBr49.prj

Export to MODFLOW6 files

NAMFILE_OUT=..\..\Sim\NBr49\NBr49.nam
WINDOW=     113100.000     387600.000     125100.000     396200.000
CELLSIZE=         25.000
ISS=         1
SDATE=19930101000000
EDATE=19930103000000
ITT=             3
IDT=             1
Time step:     1 days
NSTEP=         1
ISTEADY=         0
SSYSTEM=         0
SAVESHD=-1
SAVEDRN=0
SAVERIV=0
SAVEWEL=0
SAVEFLX=0
PCKACTIVE=0
COUPLER=..\..\..\..\software\iMOD5\bin_MF6_6
ISOLVE=         0

iMOD found model with 37 layers

Reading BND-files (2.70%)      Reading BND-files (5.41%)      Reading BND-files (8.11%)      Reading BND-files (10.81%)      Reading BND-files (13.51%)      Reading BND-files (16.22%)      Reading BND-files (18.92%)      Reading BND-files (21.62%)      Reading BND-files (24.32%)      Reading BND-files (27.03%)      Reading BND-files (29.73%)      Reading BND-files (32.43%)      Reading BND-files (35.14%)      Reading BND-files (37.84%)      Reading BND-files (40.54%)      Reading BND-files (43.24%)      Reading BND-files (45.95%)      Reading BND-files (48.65%)      Reading BND-files (51.35%)      Reading BND-files (54.05%)      Reading BND-files (56.76%)      Reading BND-files (59.46%)      Reading BND-files (62.16%)      Reading BND-files (64.86%)      Reading BND-files (67.57%)      Reading BND-files (70.27%)      Reading BND-files (72.97%)      Reading BND-files (75.68%)      Reading BND-files (78.38%)      Reading BND-files (81.08%)      Reading BND-files (83.78%)      Reading BND-files (86.49%)      Reading BND-files (89.19%)      Reading BND-files (91.89%)      Reading BND-files (94.59%)      Reading BND-files (97.30%)      Reading BND-files (100.00%)      
 
Reading SHD-files (2.70%)      Reading SHD-files (5.41%)      Reading SHD-files (8.11%)      Reading SHD-files (10.81%)      Reading SHD-files (13.51%)      Reading SHD-files (16.22%)      Reading SHD-files (18.92%)      Reading SHD-files (21.62%)      Reading SHD-files (24.32%)      Reading SHD-files (27.03%)      Reading SHD-files (29.73%)      Reading SHD-files (32.43%)      Reading SHD-files (35.14%)      Reading SHD-files (37.84%)      Reading SHD-files (40.54%)      Reading SHD-files (43.24%)      Reading SHD-files (45.95%)      Reading SHD-files (48.65%)      Reading SHD-files (51.35%)      Reading SHD-files (54.05%)      Reading SHD-files (56.76%)      Reading SHD-files (59.46%)      Reading SHD-files (62.16%)      Reading SHD-files (64.86%)      Reading SHD-files (67.57%)      Reading SHD-files (70.27%)      Reading SHD-files (72.97%)      Reading SHD-files (75.68%)      Reading SHD-files (78.38%)      Reading SHD-files (81.08%)      Reading SHD-files (83.78%)      Reading SHD-files (86.49%)      Reading SHD-files (89.19%)      Reading SHD-files (91.89%)      Reading SHD-files (94.59%)      Reading SHD-files (97.30%)      Reading SHD-files (100.00%)      
 
Reading TOP/BOT-files (2.70%)      Reading TOP/BOT-files (5.41%)      Reading TOP/BOT-files (8.11%)      Reading TOP/BOT-files (10.81%)      Reading TOP/BOT-files (13.51%)      Reading TOP/BOT-files (16.22%)      Reading TOP/BOT-files (18.92%)      Reading TOP/BOT-files (21.62%)      Reading TOP/BOT-files (24.32%)      Reading TOP/BOT-files (27.03%)      Reading TOP/BOT-files (29.73%)      Reading TOP/BOT-files (32.43%)      Reading TOP/BOT-files (35.14%)      Reading TOP/BOT-files (37.84%)      Reading TOP/BOT-files (40.54%)      Reading TOP/BOT-files (43.24%)      Reading TOP/BOT-files (45.95%)      Reading TOP/BOT-files (48.65%)      Reading TOP/BOT-files (51.35%)      Reading TOP/BOT-files (54.05%)      Reading TOP/BOT-files (56.76%)      Reading TOP/BOT-files (59.46%)      Reading TOP/BOT-files (62.16%)      Reading TOP/BOT-files (64.86%)      Reading TOP/BOT-files (67.57%)      Reading TOP/BOT-files (70.27%)      Reading TOP/BOT-files (72.97%)      Reading TOP/BOT-files (75.68%)      Reading TOP/BOT-files (78.38%)      Reading TOP/BOT-files (81.08%)      Reading TOP/BOT-files (83.78%)      Reading TOP/BOT-files (86.49%)      Reading TOP/BOT-files (89.19%)      Reading TOP/BOT-files (91.89%)      Reading TOP/BOT-files (94.59%)      Reading TOP/BOT-files (97.30%)      Reading TOP/BOT-files (100.00%)      
 
Reading LPF-files Permeability components (2.70%)      Reading LPF-files Permeability components (5.41%)      Reading LPF-files Permeability components (8.11%)      Reading LPF-files Permeability components (10.81%)      Reading LPF-files Permeability components (13.51%)      Reading LPF-files Permeability components (16.22%)      Reading LPF-files Permeability components (18.92%)      Reading LPF-files Permeability components (21.62%)      Reading LPF-files Permeability components (24.32%)      Reading LPF-files Permeability components (27.03%)      Reading LPF-files Permeability components (29.73%)      Reading LPF-files Permeability components (32.43%)      Reading LPF-files Permeability components (35.14%)      Reading LPF-files Permeability components (37.84%)      Reading LPF-files Permeability components (40.54%)      Reading LPF-files Permeability components (43.24%)      Reading LPF-files Permeability components (45.95%)      Reading LPF-files Permeability components (48.65%)      Reading LPF-files Permeability components (51.35%)      Reading LPF-files Permeability components (54.05%)      Reading LPF-files Permeability components (56.76%)      Reading LPF-files Permeability components (59.46%)      Reading LPF-files Permeability components (62.16%)      Reading LPF-files Permeability components (64.86%)      Reading LPF-files Permeability components (67.57%)      Reading LPF-files Permeability components (70.27%)      Reading LPF-files Permeability components (72.97%)      Reading LPF-files Permeability components (75.68%)      Reading LPF-files Permeability components (78.38%)      Reading LPF-files Permeability components (81.08%)      Reading LPF-files Permeability components (83.78%)      Reading LPF-files Permeability components (86.49%)      Reading LPF-files Permeability components (89.19%)      Reading LPF-files Permeability components (91.89%)      Reading LPF-files Permeability components (94.59%)      Reading LPF-files Permeability components (97.30%)      Reading LPF-files Permeability components (100.00%)      
 
Reading LPF-files Storage components (2.70%)      Reading LPF-files Storage components (5.41%)      Reading LPF-files Storage components (8.11%)      Reading LPF-files Storage components (10.81%)      Reading LPF-files Storage components (13.51%)      Reading LPF-files Storage components (16.22%)      Reading LPF-files Storage components (18.92%)      Reading LPF-files Storage components (21.62%)      Reading LPF-files Storage components (24.32%)      Reading LPF-files Storage components (27.03%)      Reading LPF-files Storage components (29.73%)      Reading LPF-files Storage components (32.43%)      Reading LPF-files Storage components (35.14%)      Reading LPF-files Storage components (37.84%)      Reading LPF-files Storage components (40.54%)      Reading LPF-files Storage components (43.24%)      Reading LPF-files Storage components (45.95%)      Reading LPF-files Storage components (48.65%)      Reading LPF-files Storage components (51.35%)      Reading LPF-files Storage components (54.05%)      Reading LPF-files Storage components (56.76%)      Reading LPF-files Storage components (59.46%)      Reading LPF-files Storage components (62.16%)      Reading LPF-files Storage components (64.86%)      Reading LPF-files Storage components (67.57%)      Reading LPF-files Storage components (70.27%)      Reading LPF-files Storage components (72.97%)      Reading LPF-files Storage components (75.68%)      Reading LPF-files Storage components (78.38%)      Reading LPF-files Storage components (81.08%)      Reading LPF-files Storage components (83.78%)      Reading LPF-files Storage components (86.49%)      Reading LPF-files Storage components (89.19%)      Reading LPF-files Storage components (91.89%)      Reading LPF-files Storage components (94.59%)      Reading LPF-files Storage components (97.30%)      Reading LPF-files Storage components (100.00%)      
 

Writing ..\..\SIM\NBR49\GWF_1\MODELINPUT\NBR49.IC6...

Writing ..\..\SIM\NBR49\GWF_1\MODELINPUT\NBR49.DIS6...

Writing ..\..\SIM\NBR49\GWF_1\MODELINPUT\NBR49.NPF6...

Writing ..\..\SIM\NBR49\GWF_1\MODELINPUT\NBR49.STO6...

Writing ..\..\SIM\NBR49\GWF_1\MODELINPUT\NBR49.HFB6...

Writing ..\..\SIM\NBR49\GWF_1\MODELINPUT\NBR49.WEL6...
Exporting timestep      1     2     1 19930101000000 19930102000000Exporting timestep      2     2     1 19930102000000 19930103000000

Writing ..\..\SIM\NBR49\GWF_1\MODELINPUT\NBR49.WEL6...
Exporting timestep      1     2     1 19930101000000 19930102000000Exporting timestep      2     2     1 19930102000000 19930103000000

Writing ..\..\SIM\NBR49\GWF_1\MODELINPUT\NBR49.WEL6...
Exporting timestep      1     2     1 19930101000000 19930102000000Exporting timestep      2     2     1 19930102000000 19930103000000

Writing ..\..\SIM\NBR49\GWF_1\MODELINPUT\NBR49.DRN6...
Exporting timestep      1     2     1 19930101000000 19930102000000Exporting timestep      2     2    -1 19930102000000 19930103000000

Writing ..\..\SIM\NBR49\GWF_1\MODELINPUT\NBR49.DRN6...
Exporting timestep      1     2     1 19930101000000 19930102000000Exporting timestep      2     2    -1 19930102000000 19930103000000

Writing ..\..\SIM\NBR49\GWF_1\MODELINPUT\NBR49.DRN6...
Exporting timestep      1     2     1 19930101000000 19930102000000Exporting timestep      2     2    -1 19930102000000 19930103000000

Writing ..\..\SIM\NBR49\GWF_1\MODELINPUT\NBR49.RIV6...
Exporting timestep      1     2     2 19930101000000 19930102000000Exporting timestep      2     2    -2 19930102000000 19930103000000

Writing ..\..\SIM\NBR49\GWF_1\MODELINPUT\NBR49.RIV6...
Exporting timestep      1     2     2 19930101000000 19930102000000Exporting timestep      2     2    -2 19930102000000 19930103000000

Writing ..\..\SIM\NBR49\GWF_1\MODELINPUT\NBR49.RIV6...
Exporting timestep      1     2     2 19930101000000 19930102000000Exporting timestep      2     2    -2 19930102000000 19930103000000

Writing ..\..\SIM\NBR49\GWF_1\MODELINPUT\NBR49.RIV6...
Exporting timestep      1     2     2 19930101000000 19930102000000Exporting timestep      2     2    -2 19930102000000 19930103000000

Writing ..\..\SIM\NBR49\GWF_1\MODELINPUT\NBR49.RIV6...
Exporting timestep      1     2     2 19930101000000 19930102000000Exporting timestep      2     2    -2 19930102000000 19930103000000

Writing ..\..\SIM\NBR49\GWF_1\MODELINPUT\NBR49.CHD6...
Exporting timestep      1     2     1 19930101000000 19930102000000Exporting timestep      2     2    -1 19930102000000 19930103000000

Writing ..\..\SIM\NBR49\GWF_1\MODELINPUT\NBR49.CHD6...
Exporting timestep      1     2     1 19930101000000 19930102000000Exporting timestep      2     2    -1 19930102000000 19930103000000

Writing ..\..\SIM\NBR49\GWF_1\MODELINPUT\NBR49.CHD6...
Exporting timestep      1     2     1 19930101000000 19930102000000Exporting timestep      2     2    -1 19930102000000 19930103000000

Writing ..\..\SIM\NBR49\GWF_1\MODELINPUT\NBR49.CHD6...
Exporting timestep      1     2     1 19930101000000 19930102000000Exporting timestep      2     2    -1 19930102000000 19930103000000

Writing ..\..\SIM\NBR49\GWF_1\MODELINPUT\NBR49.CHD6...
Exporting timestep      1     2     1 19930101000000 19930102000000Exporting timestep      2     2    -1 19930102000000 19930103000000

Writing ..\..\SIM\NBR49\GWF_1\MODELINPUT\NBR49.CHD6...
Exporting timestep      1     2     1 19930101000000 19930102000000Exporting timestep      2     2    -1 19930102000000 19930103000000

Writing ..\..\SIM\NBR49\GWF_1\MODELINPUT\NBR49.CHD6...
Exporting timestep      1     2     1 19930101000000 19930102000000Exporting timestep      2     2    -1 19930102000000 19930103000000

Writing ..\..\SIM\NBR49\GWF_1\MODELINPUT\NBR49.CHD6...
Exporting timestep      1     2     1 19930101000000 19930102000000Exporting timestep      2     2    -1 19930102000000 19930103000000

Writing ..\..\SIM\NBR49\GWF_1\MODELINPUT\NBR49.CHD6...
Exporting timestep      1     2     1 19930101000000 19930102000000Exporting timestep      2     2    -1 19930102000000 19930103000000

Writing ..\..\SIM\NBR49\GWF_1\MODELINPUT\NBR49.CHD6...
Exporting timestep      1     2     1 19930101000000 19930102000000Exporting timestep      2     2    -1 19930102000000 19930103000000

Writing ..\..\SIM\NBR49\GWF_1\MODELINPUT\NBR49.CHD6...
Exporting timestep      1     2     1 19930101000000 19930102000000Exporting timestep      2     2    -1 19930102000000 19930103000000

Writing ..\..\SIM\NBR49\GWF_1\MODELINPUT\NBR49.CHD6...
Exporting timestep      1     2     1 19930101000000 19930102000000Exporting timestep      2     2    -1 19930102000000 19930103000000

Writing ..\..\SIM\NBR49\GWF_1\MODELINPUT\NBR49.CHD6...
Exporting timestep      1     2     1 19930101000000 19930102000000Exporting timestep      2     2    -1 19930102000000 19930103000000

Writing ..\..\SIM\NBR49\GWF_1\MODELINPUT\NBR49.CHD6...
Exporting timestep      1     2     1 19930101000000 19930102000000Exporting timestep      2     2    -1 19930102000000 19930103000000

Writing ..\..\SIM\NBR49\GWF_1\MODELINPUT\NBR49.CHD6...
Exporting timestep      1     2     1 19930101000000 19930102000000Exporting timestep      2     2    -1 19930102000000 19930103000000

Writing ..\..\SIM\NBR49\GWF_1\MODELINPUT\NBR49.CHD6...
Exporting timestep      1     2     1 19930101000000 19930102000000Exporting timestep      2     2    -1 19930102000000 19930103000000

Writing ..\..\SIM\NBR49\GWF_1\MODELINPUT\NBR49.CHD6...
Exporting timestep      1     2     1 19930101000000 19930102000000Exporting timestep      2     2    -1 19930102000000 19930103000000

Writing ..\..\SIM\NBR49\GWF_1\MODELINPUT\NBR49.CHD6...
Exporting timestep      1     2     1 19930101000000 19930102000000Exporting timestep      2     2    -1 19930102000000 19930103000000

Writing ..\..\SIM\NBR49\GWF_1\MODELINPUT\NBR49.CHD6...
Exporting timestep      1     2     1 19930101000000 19930102000000Exporting timestep      2     2    -1 19930102000000 19930103000000

Writing MetaSwap files ...
Progress 0.15%             Progress 0.29%             Progress 0.44%             Progress 0.58%             Progress 0.73%             Progress 0.87%             Progress 1.02%             Progress 1.16%             Progress 1.31%             Progress 1.45%             Progress 1.60%             Progress 1.74%             Progress 1.89%             Progress 2.03%             Progress 2.18%             Progress 2.33%             Progress 2.47%             Progress 2.62%             Progress 2.76%             Progress 2.91%             Progress 3.05%             Progress 3.20%             Progress 3.34%             Progress 3.49%             Progress 3.63%             Progress 3.78%             Progress 3.92%             Progress 4.07%             Progress 4.22%             Progress 4.36%             Progress 4.51%             Progress 4.65%             Progress 4.80%             Progress 4.94%             Progress 5.09%             Progress 5.23%             Progress 5.38%             Progress 5.52%             Progress 5.67%             Progress 5.81%             Progress 5.96%             Progress 6.10%             Progress 6.25%             Progress 6.40%             Progress 6.54%             Progress 6.69%             Progress 6.83%             Progress 6.98%             Progress 7.12%             Progress 7.27%             Progress 7.41%             Progress 7.56%             Progress 7.70%             Progress 7.85%             Progress 7.99%             Progress 8.14%             Progress 8.28%             Progress 8.43%             Progress 8.58%             Progress 8.72%             Progress 8.87%             Progress 9.01%             Progress 9.16%             Progress 9.30%             Progress 9.45%             Progress 9.59%             Progress 9.74%             Progress 9.88%             Progress 10.03%             Progress 10.17%             Progress 10.32%             Progress 10.47%             Progress 10.61%             Progress 10.76%             Progress 10.90%             Progress 11.05%             Progress 11.19%             Progress 11.34%             Progress 11.48%             Progress 11.63%             Progress 11.77%             Progress 11.92%             Progress 12.06%             Progress 12.21%             Progress 12.35%             Progress 12.50%             Progress 12.65%             Progress 12.79%             Progress 12.94%             Progress 13.08%             Progress 13.23%             Progress 13.37%             Progress 13.52%             Progress 13.66%             Progress 13.81%             Progress 13.95%             Progress 14.10%             Progress 14.24%             Progress 14.39%             Progress 14.53%             Progress 14.68%             Progress 14.83%             Progress 14.97%             Progress 15.12%             Progress 15.26%             Progress 15.41%             Progress 15.55%             Progress 15.70%             Progress 15.84%             Progress 15.99%             Progress 16.13%             Progress 16.28%             Progress 16.42%             Progress 16.57%             Progress 16.72%             Progress 16.86%             Progress 17.01%             Progress 17.15%             Progress 17.30%             Progress 17.44%             Progress 17.59%             Progress 17.73%             Progress 17.88%             Progress 18.02%             Progress 18.17%             Progress 18.31%             Progress 18.46%             Progress 18.60%             Progress 18.75%             Progress 18.90%             Progress 19.04%             Progress 19.19%             Progress 19.33%             Progress 19.48%             Progress 19.62%             Progress 19.77%             Progress 19.91%             Progress 20.06%             Progress 20.20%             Progress 20.35%             Progress 20.49%             Progress 20.64%             Progress 20.78%             Progress 20.93%             Progress 21.08%             Progress 21.22%             Progress 21.37%             Progress 21.51%             Progress 21.66%             Progress 21.80%             Progress 21.95%             Progress 22.09%             Progress 22.24%             Progress 22.38%             Progress 22.53%             Progress 22.67%             Progress 22.82%             Progress 22.97%             Progress 23.11%             Progress 23.26%             Progress 23.40%             Progress 23.55%             Progress 23.69%             Progress 23.84%             Progress 23.98%             Progress 24.13%             Progress 24.27%             Progress 24.42%             Progress 24.56%             Progress 24.71%             Progress 24.85%             Progress 25.00%             Progress 25.15%             Progress 25.29%             Progress 25.44%             Progress 25.58%             Progress 25.73%             Progress 25.87%             Progress 26.02%             Progress 26.16%             Progress 26.31%             Progress 26.45%             Progress 26.60%             Progress 26.74%             Progress 26.89%             Progress 27.03%             Progress 27.18%             Progress 27.33%             Progress 27.47%             Progress 27.62%             Progress 27.76%             Progress 27.91%             Progress 28.05%             Progress 28.20%             Progress 28.34%             Progress 28.49%             Progress 28.63%             Progress 28.78%             Progress 28.92%             Progress 29.07%             Progress 29.22%             Progress 29.36%             Progress 29.51%             Progress 29.65%             Progress 29.80%             Progress 29.94%             Progress 30.09%             Progress 30.23%             Progress 30.38%             Progress 30.52%             Progress 30.67%             Progress 30.81%             Progress 30.96%             Progress 31.10%             Progress 31.25%             Progress 31.40%             Progress 31.54%             Progress 31.69%             Progress 31.83%             Progress 31.98%             Progress 32.12%             Progress 32.27%             Progress 32.41%             Progress 32.56%             Progress 32.70%             Progress 32.85%             Progress 32.99%             Progress 33.14%             Progress 33.28%             Progress 33.43%             Progress 33.58%             Progress 33.72%             Progress 33.87%             Progress 34.01%             Progress 34.16%             Progress 34.30%             Progress 34.45%             Progress 34.59%             Progress 34.74%             Progress 34.88%             Progress 35.03%             Progress 35.17%             Progress 35.32%             Progress 35.47%             Progress 35.61%             Progress 35.76%             Progress 35.90%             Progress 36.05%             Progress 36.19%             Progress 36.34%             Progress 36.48%             Progress 36.63%             Progress 36.77%             Progress 36.92%             Progress 37.06%             Progress 37.21%             Progress 37.35%             Progress 37.50%             Progress 37.65%             Progress 37.79%             Progress 37.94%             Progress 38.08%             Progress 38.23%             Progress 38.37%             Progress 38.52%             Progress 38.66%             Progress 38.81%             Progress 38.95%             Progress 39.10%             Progress 39.24%             Progress 39.39%             Progress 39.53%             Progress 39.68%             Progress 39.83%             Progress 39.97%             Progress 40.12%             Progress 40.26%             Progress 40.41%             Progress 40.55%             Progress 40.70%             Progress 40.84%             Progress 40.99%             Progress 41.13%             Progress 41.28%             Progress 41.42%             Progress 41.57%             Progress 41.72%             Progress 41.86%             Progress 42.01%             Progress 42.15%             Progress 42.30%             Progress 42.44%             Progress 42.59%             Progress 42.73%             Progress 42.88%             Progress 43.02%             Progress 43.17%             Progress 43.31%             Progress 43.46%             Progress 43.60%             Progress 43.75%             Progress 43.90%             Progress 44.04%             Progress 44.19%             Progress 44.33%             Progress 44.48%             Progress 44.62%             Progress 44.77%             Progress 44.91%             Progress 45.06%             Progress 45.20%             Progress 45.35%             Progress 45.49%             Progress 45.64%             Progress 45.78%             Progress 45.93%             Progress 46.08%             Progress 46.22%             Progress 46.37%             Progress 46.51%             Progress 46.66%             Progress 46.80%             Progress 46.95%             Progress 47.09%             Progress 47.24%             Progress 47.38%             Progress 47.53%             Progress 47.67%             Progress 47.82%             Progress 47.97%             Progress 48.11%             Progress 48.26%             Progress 48.40%             Progress 48.55%             Progress 48.69%             Progress 48.84%             Progress 48.98%             Progress 49.13%             Progress 49.27%             Progress 49.42%             Progress 49.56%             Progress 49.71%             Progress 49.85%             Progress 50.00%             Progress 0.29%             Progress 0.58%             Progress 0.87%             Progress 1.16%             Progress 1.45%             Progress 1.74%             Progress 2.03%             Progress 2.33%             Progress 2.62%             Progress 2.91%             Progress 3.20%             Progress 3.49%             Progress 3.78%             Progress 4.07%             Progress 4.36%             Progress 4.65%             Progress 4.94%             Progress 5.23%             Progress 5.52%             Progress 5.81%             Progress 6.10%             Progress 6.40%             Progress 6.69%             Progress 6.98%             Progress 7.27%             Progress 7.56%             Progress 7.85%             Progress 8.14%             Progress 8.43%             Progress 8.72%             Progress 9.01%             Progress 9.30%             Progress 9.59%             Progress 9.88%             Progress 10.17%             Progress 10.47%             Progress 10.76%             Progress 11.05%             Progress 11.34%             Progress 11.63%             Progress 11.92%             Progress 12.21%             Progress 12.50%             Progress 12.79%             Progress 13.08%             Progress 13.37%             Progress 13.66%             Progress 13.95%             Progress 14.24%             Progress 14.53%             Progress 14.83%             Progress 15.12%             Progress 15.41%             Progress 15.70%             Progress 15.99%             Progress 16.28%             Progress 16.57%             Progress 16.86%             Progress 17.15%             Progress 17.44%             Progress 17.73%             Progress 18.02%             Progress 18.31%             Progress 18.60%             Progress 18.90%             Progress 19.19%             Progress 19.48%             Progress 19.77%             Progress 20.06%             Progress 20.35%             Progress 20.64%             Progress 20.93%             Progress 21.22%             Progress 21.51%             Progress 21.80%             Progress 22.09%             Progress 22.38%             Progress 22.67%             Progress 22.97%             Progress 23.26%             Progress 23.55%             Progress 23.84%             Progress 24.13%             Progress 24.42%             Progress 24.71%             Progress 25.00%             Progress 25.29%             Progress 25.58%             Progress 25.87%             Progress 26.16%             Progress 26.45%             Progress 26.74%             Progress 27.03%             Progress 27.33%             Progress 27.62%             Progress 27.91%             Progress 28.20%             Progress 28.49%             Progress 28.78%             Progress 29.07%             Progress 29.36%             Progress 29.65%             Progress 29.94%             Progress 30.23%             Progress 30.52%             Progress 30.81%             Progress 31.10%             Progress 31.40%             Progress 31.69%             Progress 31.98%             Progress 32.27%             Progress 32.56%             Progress 32.85%             Progress 33.14%             Progress 33.43%             Progress 33.72%             Progress 34.01%             Progress 34.30%             Progress 34.59%             Progress 34.88%             Progress 35.17%             Progress 35.47%             Progress 35.76%             Progress 36.05%             Progress 36.34%             Progress 36.63%             Progress 36.92%             Progress 37.21%             Progress 37.50%             Progress 37.79%             Progress 38.08%             Progress 38.37%             Progress 38.66%             Progress 38.95%             Progress 39.24%             Progress 39.53%             Progress 39.83%             Progress 40.12%             Progress 40.41%             Progress 40.70%             Progress 40.99%             Progress 41.28%             Progress 41.57%             Progress 41.86%             Progress 42.15%             Progress 42.44%             Progress 42.73%             Progress 43.02%             Progress 43.31%             Progress 43.60%             Progress 43.90%             Progress 44.19%             Progress 44.48%             Progress 44.77%             Progress 45.06%             Progress 45.35%             Progress 45.64%             Progress 45.93%             Progress 46.22%             Progress 46.51%             Progress 46.80%             Progress 47.09%             Progress 47.38%             Progress 47.67%             Progress 47.97%             Progress 48.26%             Progress 48.55%             Progress 48.84%             Progress 49.13%             Progress 49.42%             Progress 49.71%             Progress 50.00%             Progress 50.29%             Progress 50.58%             Progress 50.87%             Progress 51.16%             Progress 51.45%             Progress 51.74%             Progress 52.03%             Progress 52.33%             Progress 52.62%             Progress 52.91%             Progress 53.20%             Progress 53.49%             Progress 53.78%             Progress 54.07%             Progress 54.36%             Progress 54.65%             Progress 54.94%             Progress 55.23%             Progress 55.52%             Progress 55.81%             Progress 56.10%             Progress 56.40%             Progress 56.69%             Progress 56.98%             Progress 57.27%             Progress 57.56%             Progress 57.85%             Progress 58.14%             Progress 58.43%             Progress 58.72%             Progress 59.01%             Progress 59.30%             Progress 59.59%             Progress 59.88%             Progress 60.17%             Progress 60.47%             Progress 60.76%             Progress 61.05%             Progress 61.34%             Progress 61.63%             Progress 61.92%             Progress 62.21%             Progress 62.50%             Progress 62.79%             Progress 63.08%             Progress 63.37%             Progress 63.66%             Progress 63.95%             Progress 64.24%             Progress 64.53%             Progress 64.83%             Progress 65.12%             Progress 65.41%             Progress 65.70%             Progress 65.99%             Progress 66.28%             Progress 66.57%             Progress 66.86%             Progress 67.15%             Progress 67.44%             Progress 67.73%             Progress 68.02%             Progress 68.31%             Progress 68.60%             Progress 68.90%             Progress 69.19%             Progress 69.48%             Progress 69.77%             Progress 70.06%             Progress 70.35%             Progress 70.64%             Progress 70.93%             Progress 71.22%             Progress 71.51%             Progress 71.80%             Progress 72.09%             Progress 72.38%             Progress 72.67%             Progress 72.97%             Progress 73.26%             Progress 73.55%             Progress 73.84%             Progress 74.13%             Progress 74.42%             Progress 74.71%             Progress 75.00%             Progress 75.29%             Progress 75.58%             Progress 75.87%             Progress 76.16%             Progress 76.45%             Progress 76.74%             Progress 77.03%             Progress 77.33%             Progress 77.62%             Progress 77.91%             Progress 78.20%             Progress 78.49%             Progress 78.78%             Progress 79.07%             Progress 79.36%             Progress 79.65%             Progress 79.94%             Progress 80.23%             Progress 80.52%             Progress 80.81%             Progress 81.10%             Progress 81.40%             Progress 81.69%             Progress 81.98%             Progress 82.27%             Progress 82.56%             Progress 82.85%             Progress 83.14%             Progress 83.43%             Progress 83.72%             Progress 84.01%             Progress 84.30%             Progress 84.59%             Progress 84.88%             Progress 85.17%             Progress 85.47%             Progress 85.76%             Progress 86.05%             Progress 86.34%             Progress 86.63%             Progress 86.92%             Progress 87.21%             Progress 87.50%             Progress 87.79%             Progress 88.08%             Progress 88.37%             Progress 88.66%             Progress 88.95%             Progress 89.24%             Progress 89.53%             Progress 89.83%             Progress 90.12%             Progress 90.41%             Progress 90.70%             Progress 90.99%             Progress 91.28%             Progress 91.57%             Progress 91.86%             Progress 92.15%             Progress 92.44%             Progress 92.73%             Progress 93.02%             Progress 93.31%             Progress 93.60%             Progress 93.90%             Progress 94.19%             Progress 94.48%             Progress 94.77%             Progress 95.06%             Progress 95.35%             Progress 95.64%             Progress 95.93%             Progress 96.22%             Progress 96.51%             Progress 96.80%             Progress 97.09%             Progress 97.38%             Progress 97.67%             Progress 97.97%             Progress 98.26%             Progress 98.55%             Progress 98.84%             Progress 99.13%             Progress 99.42%             Progress 99.71%             Progress 100.00%                     1 file(s) copied.
        1 file(s) copied.
        1 file(s) copied.
        1 file(s) copied.
        1 file(s) copied.


Successfully written MF6 files:..\..\Sim\NBr49\NBr49.nam


iMOD removed tmp-folder:
  G:\models\NBr\code\Mdl_Prep\IMOD_TMP\BATCH1

[Mon Feb 16 18:06:48 2026]
Finished jobid: 3 (Rule: Mdl_Prep)
3 of 8 steps (38%) done
Select jobs to execute...
Execute 3 jobs...

[Mon Feb 16 18:06:48 2026]
localrule add_HD_OBS_WEL:
    input: G:/models/NBr/Sim/NBr49/MFSIM.NAM
    output: G:/models/NBr/Sim/NBr49/GWF_1/MODELINPUT/NBr49.OBS6
    jobid: 2
    reason: Input files updated by another job: G:/models/NBr/Sim/NBr49/MFSIM.NAM
    resources: tmpdir=C:\Users\Karam014\AppData\Local\Temp
Shell command: None

[Mon Feb 16 18:06:48 2026]
localrule add_RIV_OBS_copy:
    input: G:/models/NBr/Sim/NBr49/MFSIM.NAM, G:/models/NBr/In/OBS/RIV/NBr39/NBr39.RIV.OBS6
    output: G:/models/NBr/Sim/NBr49/GWF_1/MODELINPUT/NBr49.RIV.OBS6
    jobid: 5
    reason: Input files updated by another job: G:/models/NBr/Sim/NBr49/MFSIM.NAM
    resources: tmpdir=C:\Users\Karam014\AppData\Local\Temp
Shell command: None

[Mon Feb 16 18:06:48 2026]
localrule add_DRN_OBS_copy:
    input: G:/models/NBr/Sim/NBr49/MFSIM.NAM, G:/models/NBr/In/OBS/DRN/NBr39/NBr39.DRN.OBS6
    output: G:/models/NBr/Sim/NBr49/GWF_1/MODELINPUT/NBr49.DRN.OBS6
    jobid: 6
    reason: Input files updated by another job: G:/models/NBr/Sim/NBr49/MFSIM.NAM
    resources: tmpdir=C:\Users\Karam014\AppData\Local\Temp
Shell command: None
[Mon Feb 16 18:06:48 2026]
Finished jobid: 5 (Rule: add_RIV_OBS_copy)
4 of 8 steps (50%) done
[Mon Feb 16 18:06:48 2026]
Finished jobid: 6 (Rule: add_DRN_OBS_copy)
5 of 8 steps (62%) done
[Mon Feb 16 18:06:48 2026]
Finished jobid: 2 (Rule: add_HD_OBS_WEL)
6 of 8 steps (75%) done
Select jobs to execute...
Execute 1 jobs...

[Mon Feb 16 18:06:48 2026]
localrule Sim:
    input: G:/models/NBr/Sim/NBr49/GWF_1/MODELINPUT/NBr49.OBS6, G:/models/NBr/Sim/NBr49/GWF_1/MODELINPUT/NBr49.RIV.OBS6, G:/models/NBr/Sim/NBr49/GWF_1/MODELINPUT/NBr49.DRN.OBS6
    output: G:/models/NBr/code/snakemake/temp/Log_Sim_NBr49
    jobid: 1
    reason: Missing output files: G:/models/NBr/code/snakemake/temp/Log_Sim_NBr49; Input files updated by another job: G:/models/NBr/Sim/NBr49/GWF_1/MODELINPUT/NBr49.RIV.OBS6, G:/models/NBr/Sim/NBr49/GWF_1/MODELINPUT/NBr49.OBS6, G:/models/NBr/Sim/NBr49/GWF_1/MODELINPUT/NBr49.DRN.OBS6
    resources: tmpdir=C:\Users\Karam014\AppData\Local\Temp
Shell command: None

G:\models\NBr\Sim\NBr49>REM ========================== 

G:\models\NBr\Sim\NBr49>REM Run Script iMOD V5_6_2 

G:\models\NBr\Sim\NBr49>REM ========================== 

G:\models\NBr\Sim\NBr49>TITLE "TOMLFILE: NBr49.toml" 

G:\models\NBr\Sim\NBr49>REM run iMOD-coupler with MODFLOW6-METASWAP model 

G:\models\NBr\Sim\NBr49>"..\..\..\..\software\iMOD5\bin_MF6_6\imod_coupler\imodc.exe" NBr49.toml 
iMOD Coupler: [1miMOD Coupler 2024.3.0[0m
                                   MODFLOW 6
                U.S. GEOLOGICAL SURVEY MODULAR HYDROLOGIC MODEL
                            VERSION 6.5.0 05/23/2024

   MODFLOW 6 compiled May 23 2024 18:06:57 with Intel(R) Fortran Intel(R) 64
   Compiler Classic for applications running on Intel(R) 64, Version 2021.7.0
                             Build 20220726_000000

This software has been approved for release by the U.S. Geological 
Survey (USGS). Although the software has been subjected to rigorous 
review, the USGS reserves the right to update the software as needed 
pursuant to further analysis and review. No warranty, expressed or 
implied, is made by the USGS or the U.S. Government as to the 
functionality of the software and related material nor shall the 
fact of release constitute any such warranty. Furthermore, the 
software is released on condition that neither the USGS nor the U.S. 
Government shall be held liable for any damages resulting from its 
authorized or unauthorized use. Also refer to the USGS Water 
Resources Software User Rights Notice for complete use, copyright, 
and distribution information.

 
 MODFLOW runs in SEQUENTIAL mode
 
 Run start date and time (yyyy/mm/dd hh:mm:ss): 2026/02/16 18:07:41
 
 Writing simulation list file: mfsim.lst
 Using Simulation name file: mfsim.nam
 
A subdirectory or file .\msw already exists.
A subdirectory or file .\msw\bda already exists.
A subdirectory or file .\msw\csv already exists.
A subdirectory or file .\msw\info already exists.
A subdirectory or file .\msw\init already exists.
A subdirectory or file .\msw\time already exists.
A subdirectory or file .\post already exists.
A subdirectory or file .\post\csv already exists.
A subdirectory or file .\post\bun already exists.
A subdirectory or file .\post\bfo already exists.
A subdirectory or file .\post\info already exists.
A subdirectory or file .\post\init already exists.
A subdirectory or file .\transol already exists.
A subdirectory or file .\transol\csv already exists.
A subdirectory or file .\transol\init already exists.
A subdirectory or file .\transol\sol already exists.
A subdirectory or file .\wof already exists.
A subdirectory or file .\wof\csv already exists.
A subdirectory or file .\wof\init already exists.
A subdirectory or file .\wof\info already exists.
 
 
MetaSWAP version V8.1.2.5
 Reading file tiop_sim.inp
  Writing file time_sim.inp
 Reading file para_sim.inp
 End reading file para_sim.inp
 Not available file mete_svat.inp           
 Reading file mete_grid.inp           
 Reading file mod2svat.inp
 >> Reading array dimensions
 Reading file area_svat.inp           
 >> Allocating array dimensions
Reading file unsa_svat.bda key-info
 Reading file mod2svat.inp
 --> number of SVATs     coupled to MODFLOW =     183388
 --> number of SVATs not coupled to MODFLOW =          0
 Reading file fact_svat.inp
  -->max. value of vegetation index in fact_svat.inp=  19
 Reading file luse_svat.inp
  -->max. value of vegetation index in luse_svat.inp=  19
  -->max. value of land use   index in luse_svat.inp=  25
 << Reading array dimensions END
 Reading file fact_svat.inp
 Reading file area_svat.inp
 Reading file infi_svat.inp
Reading file unsa_svat.bda bulk data BEGIN
  spu=  36
  spu=  47
  spu=  49
  spu=  50
  spu=  58
  spu=  59
  spu=  67
  spu=  68
  spu=  74
  spu=  77
  spu=  78
  spu=  79
  spu=  81
  spu=  82
  spu=  84
  spu=  88
  spu=  89
  spu=  90
  spu=  93
  spu=  96
  spu=  97
  spu= 100
  spu= 101
  spu= 102
  spu= 105
  spu= 106
  spu= 118
  spu= 120
  spu= 126
  spu= 127
  spu= 129
  spu= 130
  spu= 131
  spu= 135
  spu= 140
  spu= 141
  spu= 146
  spu= 147
  spu= 148
  spu= 151
  spu= 159
  spu= 161
  spu= 164
  spu= 167
  spu= 172
  spu= 176
  spu= 183
  spu= 253
  spu= 360
Reading file unsa_svat.bda bulk data   END
 Converting tables of unsa
 Building sigma tables from unsa_svat.bda
 Reading file svat2swnr_roff.inp      
 Reading file time_sim.inp            
 Not available file mete_svat.inp           
 Reading file svat2PrecGrid.inp       
 Reading file svat2EtrefGrid.inp      
  Openmete Marker -1
 Reading file mete_grid.inp           
  Openmete Marker 0
  Openmete Marker 1
  Openmete Marker 2
  Openmete Marker 3
 Reading file G:\models\NBr\In\CAP\P\NBr1\P_19930101_NBr1.asc 
 Reading file G:\models\NBr\In\CAP\PET\NBr1\PET_19930101_NBr1.asc 
 Reading file G:\models\NBr\in\cap\P\NBr1\p_19930102_NBr1.asc 
 Reading file G:\models\NBr\in\cap\PET\NBr1\PET_19930102_NBr1.asc 
  Openmete Marker 4
 Reading file scap_svat.inp           
 Reading file area_svat.inp           
 nukey_1 readselsvat=         176
 Reading file sel_key_svat_per.inp    
 nukey_2 readselsvat=         176
 Not available file sel_svat_csv.inp        
MetaSWAP_end, tiac =     0.00
 
MODFLOW_begin
iMOD Coupler: [1mMODFLOW version: 6.5.0[0m
iMOD Coupler: [1mMetaSWAP version: V8.1.2.5[0m
    Solving:  Stress period:     1    Time step:     1
MODFLOW_end
 
MetaSWAP_begin, tiac =     0.00
 Reading file init_svat.inp           
 Processing of initial MODFLOW heads BEGIN
 Processing of initial MODFLOW heads END
 Reading file init_svat.inp           
  -->initialization with qm = P from meteo
>> DO idtsw=1,nudtsw
     msw1top
MetaSWAP_dtsw_begin, tiac =     0.00
 msw1top_begin, k =       1
 msw1top_end,   k =  183388
MetaSWAP_dtsw_end,   tiac =     1.00
<< ENDDO
MetaSWAP_end, tiac =     1.00
 
MODFLOW_begin
 msw1unsa_begin, k        1
 msw1unsa_end,   k   183388
 msw1postfm_qmodf_begin, k =       1
 msw1postfm_qmodf_end  , k =  183388
 
 iter_outer =  1 : [Hgwmsw - Hgwmodf] (svat= 115701)= -0.92134 m
 iter_outer =  1 : [Hgwmsw - Hgwmodf] (svat= 168108)=  0.52279 m
 

 Cumulative relative frequency distribution of [Hgwmsw-Hgwmodf](m)
 0.00000  1e-5   1e-4   1e-3   1e-2   0.5  1-1e-2 1-1e-3 1-1e-4 1-1e-5 1.00000
 -0.920 -0.898 -0.682 -0.452 -0.061  0.000  0.105  0.287  0.383  0.446  0.523
 
   msw1postfm_sc1_begin, k =       1
   msw1postfm_sc1_end  , k =  183388

 msw1postfm_qmodf_begin, k =       1
 msw1postfm_qmodf_end  , k =  183388
 
 iter_outer =  2 : [Hgwmsw - Hgwmodf] (svat=   2385)= -0.67538 m
 iter_outer =  2 : [Hgwmsw - Hgwmodf] (svat= 131508)=  0.18858 m
 

 Cumulative relative frequency distribution of [Hgwmsw-Hgwmodf](m)
 0.00000  1e-5   1e-4   1e-3   1e-2   0.5  1-1e-2 1-1e-3 1-1e-4 1-1e-5 1.00000
 -0.674 -0.631 -0.556 -0.343 -0.017  0.000  0.009  0.068  0.132  0.177  0.189
 
   msw1postfm_sc1_begin, k =       1
   msw1postfm_sc1_end  , k =  183388

 msw1postfm_qmodf_begin, k =       1
 msw1postfm_qmodf_end  , k =  183388
 
 iter_outer =  3 : [Hgwmsw - Hgwmodf] (svat=  41984)= -0.49730 m
 iter_outer =  3 : [Hgwmsw - Hgwmodf] (svat= 104750)=  0.33142 m
 

 Cumulative relative frequency distribution of [Hgwmsw-Hgwmodf](m)
 0.00000  1e-5   1e-4   1e-3   1e-2   0.5  1-1e-2 1-1e-3 1-1e-4 1-1e-5 1.00000
 -0.496 -0.407 -0.314 -0.199 -0.009  0.000  0.003  0.035  0.113  0.247  0.331
 
   msw1postfm_sc1_begin, k =       1
   msw1postfm_sc1_end  , k =  183388

 msw1postfm_qmodf_begin, k =       1
 msw1postfm_qmodf_end  , k =  183388
 
 iter_outer =  4 : [Hgwmsw - Hgwmodf] (svat= 133102)= -0.49551 m
 iter_outer =  4 : [Hgwmsw - Hgwmodf] (svat= 133101)=  0.32837 m
 

 Cumulative relative frequency distribution of [Hgwmsw-Hgwmodf](m)
 0.00000  1e-5   1e-4   1e-3   1e-2   0.5  1-1e-2 1-1e-3 1-1e-4 1-1e-5 1.00000
 -0.495 -0.376 -0.216 -0.106 -0.003  0.000  0.001  0.035  0.173  0.293  0.328
 
   msw1postfm_sc1_begin, k =       1
   msw1postfm_sc1_end  , k =  183388

 msw1postfm_qmodf_begin, k =       1
 msw1postfm_qmodf_end  , k =  183388
 
 iter_outer =  5 : [Hgwmsw - Hgwmodf] (svat=   3586)= -0.22744 m
 iter_outer =  5 : [Hgwmsw - Hgwmodf] (svat=   2385)=  0.28770 m
 

 Cumulative relative frequency distribution of [Hgwmsw-Hgwmodf](m)
 0.00000  1e-5   1e-4   1e-3   1e-2   0.5  1-1e-2 1-1e-3 1-1e-4 1-1e-5 1.00000
 -0.226 -0.208 -0.129 -0.044  0.000  0.000  0.001  0.045  0.178  0.252  0.288
 
   msw1postfm_sc1_begin, k =       1
   msw1postfm_sc1_end  , k =  183388

 msw1postfm_qmodf_begin, k =       1
 msw1postfm_qmodf_end  , k =  183388
 
 iter_outer =  6 : [Hgwmsw - Hgwmodf] (svat= 131507)= -0.10834 m
 iter_outer =  6 : [Hgwmsw - Hgwmodf] (svat=  83431)=  0.28533 m
 

 Cumulative relative frequency distribution of [Hgwmsw-Hgwmodf](m)
 0.00000  1e-5   1e-4   1e-3   1e-2   0.5  1-1e-2 1-1e-3 1-1e-4 1-1e-5 1.00000
 -0.107 -0.097 -0.044 -0.014  0.000  0.000  0.000  0.050  0.185  0.214  0.285
 
   msw1postfm_sc1_begin, k =       1
   msw1postfm_sc1_end  , k =  183388

 msw1postfm_qmodf_begin, k =       1
 msw1postfm_qmodf_end  , k =  183388
 
 iter_outer =  7 : [Hgwmsw - Hgwmodf] (svat= 133101)= -0.11307 m
 iter_outer =  7 : [Hgwmsw - Hgwmodf] (svat= 133102)=  0.30927 m
 

 Cumulative relative frequency distribution of [Hgwmsw-Hgwmodf](m)
 0.00000  1e-5   1e-4   1e-3   1e-2   0.5  1-1e-2 1-1e-3 1-1e-4 1-1e-5 1.00000
 -0.112 -0.044 -0.022 -0.004  0.000  0.000  0.000  0.046  0.169  0.243  0.309
 
   msw1postfm_sc1_begin, k =       1
   msw1postfm_sc1_end  , k =  183388

 msw1postfm_qmodf_begin, k =       1
 msw1postfm_qmodf_end  , k =  183388
 
 iter_outer =  8 : [Hgwmsw - Hgwmodf] (svat=   4199)= -0.01890 m
 iter_outer =  8 : [Hgwmsw - Hgwmodf] (svat= 128335)=  0.21570 m
 

 Cumulative relative frequency distribution of [Hgwmsw-Hgwmodf](m)
 0.00000  1e-5   1e-4   1e-3   1e-2   0.5  1-1e-2 1-1e-3 1-1e-4 1-1e-5 1.00000
 -0.018 -0.017 -0.006 -0.001  0.000  0.000  0.000  0.039  0.140  0.186  0.216
 
   msw1postfm_sc1_begin, k =       1
   msw1postfm_sc1_end  , k =  183388

 msw1postfm_qmodf_begin, k =       1
 msw1postfm_qmodf_end  , k =  183388
 
 iter_outer =  9 : [Hgwmsw - Hgwmodf] (svat=   4200)= -0.01214 m
 iter_outer =  9 : [Hgwmsw - Hgwmodf] (svat= 128335)=  0.20226 m
 

 Cumulative relative frequency distribution of [Hgwmsw-Hgwmodf](m)
 0.00000  1e-5   1e-4   1e-3   1e-2   0.5  1-1e-2 1-1e-3 1-1e-4 1-1e-5 1.00000
 -0.011 -0.010 -0.003  0.000  0.000  0.000  0.000  0.035  0.116  0.166  0.202
 
   msw1postfm_sc1_begin, k =       1
   msw1postfm_sc1_end  , k =  183388

 msw1postfm_qmodf_begin, k =       1
 msw1postfm_qmodf_end  , k =  183388
 
 iter_outer = 10 : [Hgwmsw - Hgwmodf] (svat= 157736)= -0.00667 m
 iter_outer = 10 : [Hgwmsw - Hgwmodf] (svat= 128335)=  0.18074 m
 

 Cumulative relative frequency distribution of [Hgwmsw-Hgwmodf](m)
 0.00000  1e-5   1e-4   1e-3   1e-2   0.5  1-1e-2 1-1e-3 1-1e-4 1-1e-5 1.00000
 -0.006 -0.005 -0.001  0.000  0.000  0.000  0.000  0.031  0.093  0.161  0.181
 
   msw1postfm_sc1_begin, k =       1
   msw1postfm_sc1_end  , k =  183388

 msw1postfm_qmodf_begin, k =       1
 msw1postfm_qmodf_end  , k =  183388
 
 iter_outer = 11 : [Hgwmsw - Hgwmodf] (svat= 157735)= -0.00489 m
 iter_outer = 11 : [Hgwmsw - Hgwmodf] (svat= 128335)=  0.16185 m
 

 Cumulative relative frequency distribution of [Hgwmsw-Hgwmodf](m)
 0.00000  1e-5   1e-4   1e-3   1e-2   0.5  1-1e-2 1-1e-3 1-1e-4 1-1e-5 1.00000
 -0.004 -0.002  0.000  0.000  0.000  0.000  0.000  0.028  0.079  0.157  0.162
 
   msw1postfm_sc1_begin, k =       1
   msw1postfm_sc1_end  , k =  183388

 msw1postfm_qmodf_begin, k =       1
 msw1postfm_qmodf_end  , k =  183388
 
 iter_outer = 12 : [Hgwmsw - Hgwmodf] (svat= 113097)= -0.00213 m
 iter_outer = 12 : [Hgwmsw - Hgwmodf] (svat= 129411)=  0.15391 m
 

 Cumulative relative frequency distribution of [Hgwmsw-Hgwmodf](m)
 0.00000  1e-5   1e-4   1e-3   1e-2   0.5  1-1e-2 1-1e-3 1-1e-4 1-1e-5 1.00000
 -0.001  0.000  0.000  0.000  0.000  0.000  0.000  0.026  0.074  0.145  0.154
 
   msw1postfm_sc1_begin, k =       1
   msw1postfm_sc1_end  , k =  183388

 msw1postfm_qmodf_begin, k =       1
 msw1postfm_qmodf_end  , k =  183388
 
 iter_outer = 13 : [Hgwmsw - Hgwmodf] (svat=  20652)= -0.00051 m
 iter_outer = 13 : [Hgwmsw - Hgwmodf] (svat= 129411)=  0.15045 m
 

 Cumulative relative frequency distribution of [Hgwmsw-Hgwmodf](m)
 0.00000  1e-5   1e-4   1e-3   1e-2   0.5  1-1e-2 1-1e-3 1-1e-4 1-1e-5 1.00000
  0.000  0.000  0.000  0.000  0.000  0.000  0.000  0.024  0.067  0.131  0.150
 
   msw1postfm_sc1_begin, k =       1
   msw1postfm_sc1_end  , k =  183388

 msw1postfm_qmodf_begin, k =       1
 msw1postfm_qmodf_end  , k =  183388
 
 iter_outer = 14 : [Hgwmsw - Hgwmodf] (svat= 113097)= -0.00421 m
 iter_outer = 14 : [Hgwmsw - Hgwmodf] (svat= 129411)=  0.14734 m
 

 Cumulative relative frequency distribution of [Hgwmsw-Hgwmodf](m)
 0.00000  1e-5   1e-4   1e-3   1e-2   0.5  1-1e-2 1-1e-3 1-1e-4 1-1e-5 1.00000
 -0.003  0.000  0.000  0.000  0.000  0.000  0.000  0.022  0.060  0.118  0.147
 
   msw1postfm_sc1_begin, k =       1
   msw1postfm_sc1_end  , k =  183388

 msw1postfm_qmodf_begin, k =       1
 msw1postfm_qmodf_end  , k =  183388
 
 iter_outer = 15 : [Hgwmsw - Hgwmodf] (svat= 147410)= -0.00027 m
 iter_outer = 15 : [Hgwmsw - Hgwmodf] (svat= 129411)=  0.14453 m
 

 Cumulative relative frequency distribution of [Hgwmsw-Hgwmodf](m)
 0.00000  1e-5   1e-4   1e-3   1e-2   0.5  1-1e-2 1-1e-3 1-1e-4 1-1e-5 1.00000
  0.000  0.000  0.000  0.000  0.000  0.000  0.000  0.020  0.057  0.106  0.145
 
   msw1postfm_sc1_begin, k =       1
   msw1postfm_sc1_end  , k =  183388

 msw1postfm_qmodf_begin, k =       1
 msw1postfm_qmodf_end  , k =  183388
 
 iter_outer = 16 : [Hgwmsw - Hgwmodf] (svat= 113097)= -0.00349 m
 iter_outer = 16 : [Hgwmsw - Hgwmodf] (svat= 129411)=  0.14200 m
 

 Cumulative relative frequency distribution of [Hgwmsw-Hgwmodf](m)
 0.00000  1e-5   1e-4   1e-3   1e-2   0.5  1-1e-2 1-1e-3 1-1e-4 1-1e-5 1.00000
 -0.002  0.000  0.000  0.000  0.000  0.000  0.000  0.018  0.053  0.096  0.142
 
   msw1postfm_sc1_begin, k =       1
   msw1postfm_sc1_end  , k =  183388

 msw1postfm_qmodf_begin, k =       1
 msw1postfm_qmodf_end  , k =  183388
 
 iter_outer = 17 : [Hgwmsw - Hgwmodf] (svat= 145762)= -0.00020 m
 iter_outer = 17 : [Hgwmsw - Hgwmodf] (svat= 129411)=  0.13973 m
 

 Cumulative relative frequency distribution of [Hgwmsw-Hgwmodf](m)
 0.00000  1e-5   1e-4   1e-3   1e-2   0.5  1-1e-2 1-1e-3 1-1e-4 1-1e-5 1.00000
  0.000  0.000  0.000  0.000  0.000  0.000  0.000  0.017  0.050  0.086  0.140
 
   msw1postfm_sc1_begin, k =       1
   msw1postfm_sc1_end  , k =  183388

 msw1postfm_qmodf_begin, k =       1
 msw1postfm_qmodf_end  , k =  183388
 
 iter_outer = 18 : [Hgwmsw - Hgwmodf] (svat= 113097)= -0.00408 m
 iter_outer = 18 : [Hgwmsw - Hgwmodf] (svat= 129411)=  0.13770 m
 

 Cumulative relative frequency distribution of [Hgwmsw-Hgwmodf](m)
 0.00000  1e-5   1e-4   1e-3   1e-2   0.5  1-1e-2 1-1e-3 1-1e-4 1-1e-5 1.00000
 -0.003  0.000  0.000  0.000  0.000  0.000  0.000  0.015  0.046  0.077  0.138
 
   msw1postfm_sc1_begin, k =       1
   msw1postfm_sc1_end  , k =  183388

 msw1postfm_qmodf_begin, k =       1
 msw1postfm_qmodf_end  , k =  183388
 
 iter_outer = 19 : [Hgwmsw - Hgwmodf] (svat= 145762)= -0.00015 m
 iter_outer = 19 : [Hgwmsw - Hgwmodf] (svat= 129411)=  0.13229 m
 

 Cumulative relative frequency distribution of [Hgwmsw-Hgwmodf](m)
 0.00000  1e-5   1e-4   1e-3   1e-2   0.5  1-1e-2 1-1e-3 1-1e-4 1-1e-5 1.00000
  0.000  0.000  0.000  0.000  0.000  0.000  0.000  0.014  0.043  0.068  0.132
 
   msw1postfm_sc1_begin, k =       1
   msw1postfm_sc1_end  , k =  183388

 msw1postfm_qmodf_begin, k =       1
 msw1postfm_qmodf_end  , k =  183388
 
 iter_outer = 20 : [Hgwmsw - Hgwmodf] (svat= 113097)= -0.00363 m
 iter_outer = 20 : [Hgwmsw - Hgwmodf] (svat= 129411)=  0.11924 m
 

 Cumulative relative frequency distribution of [Hgwmsw-Hgwmodf](m)
 0.00000  1e-5   1e-4   1e-3   1e-2   0.5  1-1e-2 1-1e-3 1-1e-4 1-1e-5 1.00000
 -0.003  0.000  0.000  0.000  0.000  0.000  0.000  0.013  0.041  0.063  0.119
 
   msw1postfm_sc1_begin, k =       1
   msw1postfm_sc1_end  , k =  183388

 msw1postfm_qmodf_begin, k =       1
 msw1postfm_qmodf_end  , k =  183388
 
 iter_outer = 21 : [Hgwmsw - Hgwmodf] (svat= 142263)= -0.00009 m
 iter_outer = 21 : [Hgwmsw - Hgwmodf] (svat= 129411)=  0.10744 m
 

 Cumulative relative frequency distribution of [Hgwmsw-Hgwmodf](m)
 0.00000  1e-5   1e-4   1e-3   1e-2   0.5  1-1e-2 1-1e-3 1-1e-4 1-1e-5 1.00000
  0.000  0.000  0.000  0.000  0.000  0.000  0.000  0.012  0.040  0.057  0.107
 
   msw1postfm_sc1_begin, k =       1
   msw1postfm_sc1_end  , k =  183388

 msw1postfm_qmodf_begin, k =       1
 msw1postfm_qmodf_end  , k =  183388
 
 iter_outer = 22 : [Hgwmsw - Hgwmodf] (svat= 113097)= -0.00397 m
 iter_outer = 22 : [Hgwmsw - Hgwmodf] (svat= 129411)=  0.09690 m
 

 Cumulative relative frequency distribution of [Hgwmsw-Hgwmodf](m)
 0.00000  1e-5   1e-4   1e-3   1e-2   0.5  1-1e-2 1-1e-3 1-1e-4 1-1e-5 1.00000
 -0.003  0.000  0.000  0.000  0.000  0.000  0.000  0.012  0.038  0.052  0.097
 
   msw1postfm_sc1_begin, k =       1
   msw1postfm_sc1_end  , k =  183388

 msw1postfm_qmodf_begin, k =       1
 msw1postfm_qmodf_end  , k =  183388
 
 iter_outer = 23 : [Hgwmsw - Hgwmodf] (svat= 142263)= -0.00010 m
 iter_outer = 23 : [Hgwmsw - Hgwmodf] (svat= 129411)=  0.08705 m
 

 Cumulative relative frequency distribution of [Hgwmsw-Hgwmodf](m)
 0.00000  1e-5   1e-4   1e-3   1e-2   0.5  1-1e-2 1-1e-3 1-1e-4 1-1e-5 1.00000
  0.000  0.000  0.000  0.000  0.000  0.000  0.000  0.011  0.036  0.050  0.087
 
   msw1postfm_sc1_begin, k =       1
   msw1postfm_sc1_end  , k =  183388

 msw1postfm_qmodf_begin, k =       1
 msw1postfm_qmodf_end  , k =  183388
 
 iter_outer = 24 : [Hgwmsw - Hgwmodf] (svat= 113097)= -0.00366 m
 iter_outer = 24 : [Hgwmsw - Hgwmodf] (svat= 129411)=  0.07835 m
 

 Cumulative relative frequency distribution of [Hgwmsw-Hgwmodf](m)
 0.00000  1e-5   1e-4   1e-3   1e-2   0.5  1-1e-2 1-1e-3 1-1e-4 1-1e-5 1.00000
 -0.003  0.000  0.000  0.000  0.000  0.000  0.000  0.010  0.034  0.049  0.078
 
   msw1postfm_sc1_begin, k =       1
   msw1postfm_sc1_end  , k =  183388

 msw1postfm_qmodf_begin, k =       1
 msw1postfm_qmodf_end  , k =  183388
 
 iter_outer = 25 : [Hgwmsw - Hgwmodf] (svat= 142263)= -0.00009 m
 iter_outer = 25 : [Hgwmsw - Hgwmodf] (svat= 129411)=  0.07080 m
 

 Cumulative relative frequency distribution of [Hgwmsw-Hgwmodf](m)
 0.00000  1e-5   1e-4   1e-3   1e-2   0.5  1-1e-2 1-1e-3 1-1e-4 1-1e-5 1.00000
  0.000  0.000  0.000  0.000  0.000  0.000  0.000  0.010  0.032  0.046  0.071
 
   msw1postfm_sc1_begin, k =       1
   msw1postfm_sc1_end  , k =  183388

 msw1postfm_qmodf_begin, k =       1
 msw1postfm_qmodf_end  , k =  183388
 
 iter_outer = 26 : [Hgwmsw - Hgwmodf] (svat= 113097)= -0.00392 m
 iter_outer = 26 : [Hgwmsw - Hgwmodf] (svat= 129411)=  0.06398 m
 

 Cumulative relative frequency distribution of [Hgwmsw-Hgwmodf](m)
 0.00000  1e-5   1e-4   1e-3   1e-2   0.5  1-1e-2 1-1e-3 1-1e-4 1-1e-5 1.00000
 -0.003  0.000  0.000  0.000  0.000  0.000  0.000  0.009  0.030  0.044  0.064
 
   msw1postfm_sc1_begin, k =       1
   msw1postfm_sc1_end  , k =  183388

 msw1postfm_qmodf_begin, k =       1
 msw1postfm_qmodf_end  , k =  183388
 
 iter_outer = 27 : [Hgwmsw - Hgwmodf] (svat= 142263)= -0.00007 m
 iter_outer = 27 : [Hgwmsw - Hgwmodf] (svat= 129411)=  0.05758 m
 

 Cumulative relative frequency distribution of [Hgwmsw-Hgwmodf](m)
 0.00000  1e-5   1e-4   1e-3   1e-2   0.5  1-1e-2 1-1e-3 1-1e-4 1-1e-5 1.00000
  0.000  0.000  0.000  0.000  0.000  0.000  0.000  0.008  0.030  0.041  0.058
 
   msw1postfm_sc1_begin, k =       1
   msw1postfm_sc1_end  , k =  183388

 msw1postfm_qmodf_begin, k =       1
 msw1postfm_qmodf_end  , k =  183388
 
 iter_outer = 28 : [Hgwmsw - Hgwmodf] (svat= 113097)= -0.00369 m
 iter_outer = 28 : [Hgwmsw - Hgwmodf] (svat= 129411)=  0.05206 m
 

 Cumulative relative frequency distribution of [Hgwmsw-Hgwmodf](m)
 0.00000  1e-5   1e-4   1e-3   1e-2   0.5  1-1e-2 1-1e-3 1-1e-4 1-1e-5 1.00000
 -0.003  0.000  0.000  0.000  0.000  0.000  0.000  0.008  0.029  0.038  0.052
 
   msw1postfm_sc1_begin, k =       1
   msw1postfm_sc1_end  , k =  183388

 msw1postfm_qmodf_begin, k =       1
 msw1postfm_qmodf_end  , k =  183388
 
 iter_outer = 29 : [Hgwmsw - Hgwmodf] (svat= 142263)= -0.00007 m
 iter_outer = 29 : [Hgwmsw - Hgwmodf] (svat= 129411)=  0.04698 m
 

 Cumulative relative frequency distribution of [Hgwmsw-Hgwmodf](m)
 0.00000  1e-5   1e-4   1e-3   1e-2   0.5  1-1e-2 1-1e-3 1-1e-4 1-1e-5 1.00000
  0.000  0.000  0.000  0.000  0.000  0.000  0.000  0.007  0.027  0.036  0.047
 
   msw1postfm_sc1_begin, k =       1
   msw1postfm_sc1_end  , k =  183388

 msw1postfm_qmodf_begin, k =       1
 msw1postfm_qmodf_end  , k =  183388
 
 iter_outer = 30 : [Hgwmsw - Hgwmodf] (svat= 113097)= -0.00383 m
 iter_outer = 30 : [Hgwmsw - Hgwmodf] (svat= 129411)=  0.04234 m
 

 Cumulative relative frequency distribution of [Hgwmsw-Hgwmodf](m)
 0.00000  1e-5   1e-4   1e-3   1e-2   0.5  1-1e-2 1-1e-3 1-1e-4 1-1e-5 1.00000
 -0.003  0.000  0.000  0.000  0.000  0.000  0.000  0.007  0.025  0.034  0.042
 
   msw1postfm_sc1_begin, k =       1
   msw1postfm_sc1_end  , k =  183388

 msw1postfm_qmodf_begin, k =       1
 msw1postfm_qmodf_end  , k =  183388
 
 iter_outer = 31 : [Hgwmsw - Hgwmodf] (svat= 142263)= -0.00006 m
 iter_outer = 31 : [Hgwmsw - Hgwmodf] (svat= 129411)=  0.03844 m
 

 Cumulative relative frequency distribution of [Hgwmsw-Hgwmodf](m)
 0.00000  1e-5   1e-4   1e-3   1e-2   0.5  1-1e-2 1-1e-3 1-1e-4 1-1e-5 1.00000
  0.000  0.000  0.000  0.000  0.000  0.000  0.000  0.006  0.024  0.033  0.038
 
   msw1postfm_sc1_begin, k =       1
   msw1postfm_sc1_end  , k =  183388

 msw1postfm_qmodf_begin, k =       1
 msw1postfm_qmodf_end  , k =  183388
 
 iter_outer = 32 : [Hgwmsw - Hgwmodf] (svat= 113097)= -0.02369 m
 iter_outer = 32 : [Hgwmsw - Hgwmodf] (svat= 129411)=  0.03504 m
 

 Cumulative relative frequency distribution of [Hgwmsw-Hgwmodf](m)
 0.00000  1e-5   1e-4   1e-3   1e-2   0.5  1-1e-2 1-1e-3 1-1e-4 1-1e-5 1.00000
 -0.023  0.000  0.000  0.000  0.000  0.000  0.000  0.006  0.023  0.032  0.035
 
   msw1postfm_sc1_begin, k =       1
   msw1postfm_sc1_end  , k =  183388

 msw1postfm_qmodf_begin, k =       1
 msw1postfm_qmodf_end  , k =  183388
 
 iter_outer = 33 : [Hgwmsw - Hgwmodf] (svat= 148079)= -0.00006 m
 iter_outer = 33 : [Hgwmsw - Hgwmodf] (svat= 163524)=  0.03348 m
 

 Cumulative relative frequency distribution of [Hgwmsw-Hgwmodf](m)
 0.00000  1e-5   1e-4   1e-3   1e-2   0.5  1-1e-2 1-1e-3 1-1e-4 1-1e-5 1.00000
  0.000  0.000  0.000  0.000  0.000  0.000  0.000  0.006  0.022  0.031  0.033
 
   msw1postfm_sc1_begin, k =       1
   msw1postfm_sc1_end  , k =  183388

 msw1postfm_qmodf_begin, k =       1
 msw1postfm_qmodf_end  , k =  183388
 
 iter_outer = 34 : [Hgwmsw - Hgwmodf] (svat= 113097)= -0.00496 m
 iter_outer = 34 : [Hgwmsw - Hgwmodf] (svat= 163524)=  0.03316 m
 

 Cumulative relative frequency distribution of [Hgwmsw-Hgwmodf](m)
 0.00000  1e-5   1e-4   1e-3   1e-2   0.5  1-1e-2 1-1e-3 1-1e-4 1-1e-5 1.00000
 -0.004  0.000  0.000  0.000  0.000  0.000  0.000  0.005  0.022  0.030  0.033
 
   msw1postfm_sc1_begin, k =       1
   msw1postfm_sc1_end  , k =  183388

 msw1postfm_qmodf_begin, k =       1
 msw1postfm_qmodf_end  , k =  183388
 
 iter_outer = 35 : [Hgwmsw - Hgwmodf] (svat= 148079)= -0.00005 m
 iter_outer = 35 : [Hgwmsw - Hgwmodf] (svat= 163524)=  0.03270 m
 

 Cumulative relative frequency distribution of [Hgwmsw-Hgwmodf](m)
 0.00000  1e-5   1e-4   1e-3   1e-2   0.5  1-1e-2 1-1e-3 1-1e-4 1-1e-5 1.00000
  0.000  0.000  0.000  0.000  0.000  0.000  0.000  0.005  0.022  0.029  0.033
 
   msw1postfm_sc1_begin, k =       1
   msw1postfm_sc1_end  , k =  183388

 msw1postfm_qmodf_begin, k =       1
 msw1postfm_qmodf_end  , k =  183388
 
 iter_outer = 36 : [Hgwmsw - Hgwmodf] (svat= 113097)= -0.01221 m
 iter_outer = 36 : [Hgwmsw - Hgwmodf] (svat= 163524)=  0.03241 m
 

 Cumulative relative frequency distribution of [Hgwmsw-Hgwmodf](m)
 0.00000  1e-5   1e-4   1e-3   1e-2   0.5  1-1e-2 1-1e-3 1-1e-4 1-1e-5 1.00000
 -0.011  0.000  0.000  0.000  0.000  0.000  0.000  0.005  0.022  0.028  0.032
 
   msw1postfm_sc1_begin, k =       1
   msw1postfm_sc1_end  , k =  183388

 msw1postfm_qmodf_begin, k =       1
 msw1postfm_qmodf_end  , k =  183388
 
 iter_outer = 37 : [Hgwmsw - Hgwmodf] (svat=  82941)= -0.00004 m
 iter_outer = 37 : [Hgwmsw - Hgwmodf] (svat= 163524)=  0.03213 m
 

 Cumulative relative frequency distribution of [Hgwmsw-Hgwmodf](m)
 0.00000  1e-5   1e-4   1e-3   1e-2   0.5  1-1e-2 1-1e-3 1-1e-4 1-1e-5 1.00000
  0.000  0.000  0.000  0.000  0.000  0.000  0.000  0.005  0.021  0.028  0.032
 
   msw1postfm_sc1_begin, k =       1
   msw1postfm_sc1_end  , k =  183388

 msw1postfm_qmodf_begin, k =       1
 msw1postfm_qmodf_end  , k =  183388
 
 iter_outer = 38 : [Hgwmsw - Hgwmodf] (svat= 113097)= -0.00155 m
 iter_outer = 38 : [Hgwmsw - Hgwmodf] (svat= 163524)=  0.03183 m
 

 Cumulative relative frequency distribution of [Hgwmsw-Hgwmodf](m)
 0.00000  1e-5   1e-4   1e-3   1e-2   0.5  1-1e-2 1-1e-3 1-1e-4 1-1e-5 1.00000
 -0.001  0.000  0.000  0.000  0.000  0.000  0.000  0.004  0.021  0.027  0.032
 
   msw1postfm_sc1_begin, k =       1
   msw1postfm_sc1_end  , k =  183388

 msw1postfm_qmodf_begin, k =       1
 msw1postfm_qmodf_end  , k =  183388
 
 iter_outer = 39 : [Hgwmsw - Hgwmodf] (svat=  82941)= -0.00004 m
 iter_outer = 39 : [Hgwmsw - Hgwmodf] (svat= 163524)=  0.03157 m
 

 Cumulative relative frequency distribution of [Hgwmsw-Hgwmodf](m)
 0.00000  1e-5   1e-4   1e-3   1e-2   0.5  1-1e-2 1-1e-3 1-1e-4 1-1e-5 1.00000
  0.000  0.000  0.000  0.000  0.000  0.000  0.000  0.004  0.020  0.026  0.032
 
   msw1postfm_sc1_begin, k =       1
   msw1postfm_sc1_end  , k =  183388

 msw1postfm_qmodf_begin, k =       1
 msw1postfm_qmodf_end  , k =  183388
 
 iter_outer = 40 : [Hgwmsw - Hgwmodf] (svat= 113097)= -0.00361 m
 iter_outer = 40 : [Hgwmsw - Hgwmodf] (svat= 163524)=  0.03129 m
 

 Cumulative relative frequency distribution of [Hgwmsw-Hgwmodf](m)
 0.00000  1e-5   1e-4   1e-3   1e-2   0.5  1-1e-2 1-1e-3 1-1e-4 1-1e-5 1.00000
 -0.003  0.000  0.000  0.000  0.000  0.000  0.000  0.004  0.019  0.026  0.031
 
   msw1postfm_sc1_begin, k =       1
   msw1postfm_sc1_end  , k =  183388

 msw1postfm_qmodf_begin, k =       1
 msw1postfm_qmodf_end  , k =  183388
 
 iter_outer = 41 : [Hgwmsw - Hgwmodf] (svat= 145762)= -0.00003 m
 iter_outer = 41 : [Hgwmsw - Hgwmodf] (svat= 163524)=  0.03106 m
 

 Cumulative relative frequency distribution of [Hgwmsw-Hgwmodf](m)
 0.00000  1e-5   1e-4   1e-3   1e-2   0.5  1-1e-2 1-1e-3 1-1e-4 1-1e-5 1.00000
  0.000  0.000  0.000  0.000  0.000  0.000  0.000  0.004  0.019  0.025  0.031
 
   msw1postfm_sc1_begin, k =       1
   msw1postfm_sc1_end  , k =  183388

 msw1postfm_qmodf_begin, k =       1
 msw1postfm_qmodf_end  , k =  183388
 
 iter_outer = 42 : [Hgwmsw - Hgwmodf] (svat= 113097)= -0.00210 m
 iter_outer = 42 : [Hgwmsw - Hgwmodf] (svat= 163524)=  0.03083 m
 

 Cumulative relative frequency distribution of [Hgwmsw-Hgwmodf](m)
 0.00000  1e-5   1e-4   1e-3   1e-2   0.5  1-1e-2 1-1e-3 1-1e-4 1-1e-5 1.00000
 -0.001  0.000  0.000  0.000  0.000  0.000  0.000  0.004  0.019  0.025  0.031
 
   msw1postfm_sc1_begin, k =       1
   msw1postfm_sc1_end  , k =  183388

 msw1postfm_qmodf_begin, k =       1
 msw1postfm_qmodf_end  , k =  183388
 
 iter_outer = 43 : [Hgwmsw - Hgwmodf] (svat= 138925)= -0.00003 m
 iter_outer = 43 : [Hgwmsw - Hgwmodf] (svat= 163524)=  0.03067 m
 

 Cumulative relative frequency distribution of [Hgwmsw-Hgwmodf](m)
 0.00000  1e-5   1e-4   1e-3   1e-2   0.5  1-1e-2 1-1e-3 1-1e-4 1-1e-5 1.00000
  0.000  0.000  0.000  0.000  0.000  0.000  0.000  0.004  0.018  0.025  0.031
 
   msw1postfm_sc1_begin, k =       1
   msw1postfm_sc1_end  , k =  183388

 msw1postfm_qmodf_begin, k =       1
 msw1postfm_qmodf_end  , k =  183388
 
 iter_outer = 44 : [Hgwmsw - Hgwmodf] (svat= 113097)= -0.00071 m
 iter_outer = 44 : [Hgwmsw - Hgwmodf] (svat= 163524)=  0.03052 m
 

 Cumulative relative frequency distribution of [Hgwmsw-Hgwmodf](m)
 0.00000  1e-5   1e-4   1e-3   1e-2   0.5  1-1e-2 1-1e-3 1-1e-4 1-1e-5 1.00000
  0.000  0.000  0.000  0.000  0.000  0.000  0.000  0.004  0.018  0.025  0.031
 
   msw1postfm_sc1_begin, k =       1
   msw1postfm_sc1_end  , k =  183388

 msw1postfm_qmodf_begin, k =       1
 msw1postfm_qmodf_end  , k =  183388
 
 iter_outer = 45 : [Hgwmsw - Hgwmodf] (svat= 138925)= -0.00003 m
 iter_outer = 45 : [Hgwmsw - Hgwmodf] (svat= 163524)=  0.03044 m
 

 Cumulative relative frequency distribution of [Hgwmsw-Hgwmodf](m)
 0.00000  1e-5   1e-4   1e-3   1e-2   0.5  1-1e-2 1-1e-3 1-1e-4 1-1e-5 1.00000
  0.000  0.000  0.000  0.000  0.000  0.000  0.000  0.004  0.018  0.025  0.030
 

 Smallest phreatic storage coefficient: sc1(  58681)= 0.01000 (m3/m2/m)
 
MODFLOW_end
 
MetaSWAP_finalize&write_begin,tiac =     1.00
msw1bd_begin,   k =       1
 max. water loss,     vcr(  23866)=  -0.00000 m3/m2
 max. water creation, vcr(   5856)=   0.00000 m3/m2
msw1bd_end,     k =  183388
MetaSWAP_finalize&write_end, tiac =     1.00
MetaSWAP_rootzone_update_begin
MetaSWAP_rootzone_update_end  
 
MODFLOW_begin
    Solving:  Stress period:     2    Time step:     1
MODFLOW_end
 
MetaSWAP_begin, tiac =     1.00
>> DO idtsw=1,nudtsw
     msw1top
MetaSWAP_dtsw_begin, tiac =     1.00
 Reading file G:\models\NBr\in\cap\P\NBr1\p_19930103_NBr1.asc 
 Reading file G:\models\NBr\in\cap\PET\NBr1\PET_19930103_NBr1.asc 
 msw1top_begin, k =       1
 msw1top_end,   k =  183388
MetaSWAP_dtsw_end,   tiac =     2.00
<< ENDDO
MetaSWAP_end, tiac =     2.00
 
MODFLOW_begin
 msw1unsa_begin, k        1
 msw1unsa_end,   k   183388
 msw1postfm_qmodf_begin, k =       1
 msw1postfm_qmodf_end  , k =  183388
 
 iter_outer =  1 : [Hgwmsw - Hgwmodf] (svat=  73545)= -0.11506 m
 iter_outer =  1 : [Hgwmsw - Hgwmodf] (svat= 151942)=  0.33145 m
 

 Cumulative relative frequency distribution of [Hgwmsw-Hgwmodf](m)
 0.00000  1e-5   1e-4   1e-3   1e-2   0.5  1-1e-2 1-1e-3 1-1e-4 1-1e-5 1.00000
 -0.114 -0.107 -0.073 -0.049 -0.017  0.000  0.007  0.045  0.171  0.275  0.331
 
   msw1postfm_sc1_begin, k =       1
   msw1postfm_sc1_end  , k =  183388

 msw1postfm_qmodf_begin, k =       1
 msw1postfm_qmodf_end  , k =  183388
 
 iter_outer =  2 : [Hgwmsw - Hgwmodf] (svat=  21923)= -0.17713 m
 iter_outer =  2 : [Hgwmsw - Hgwmodf] (svat=  39932)=  0.09033 m
 

 Cumulative relative frequency distribution of [Hgwmsw-Hgwmodf](m)
 0.00000  1e-5   1e-4   1e-3   1e-2   0.5  1-1e-2 1-1e-3 1-1e-4 1-1e-5 1.00000
 -0.176 -0.171 -0.106 -0.013  0.000  0.000  0.001  0.012  0.046  0.086  0.090
 
   msw1postfm_sc1_begin, k =       1
   msw1postfm_sc1_end  , k =  183388

 msw1postfm_qmodf_begin, k =       1
 msw1postfm_qmodf_end  , k =  183388
 
 iter_outer =  3 : [Hgwmsw - Hgwmodf] (svat=  21923)= -0.11643 m
 iter_outer =  3 : [Hgwmsw - Hgwmodf] (svat= 150701)=  0.07352 m
 

 Cumulative relative frequency distribution of [Hgwmsw-Hgwmodf](m)
 0.00000  1e-5   1e-4   1e-3   1e-2   0.5  1-1e-2 1-1e-3 1-1e-4 1-1e-5 1.00000
 -0.115 -0.102 -0.064 -0.005  0.000  0.000  0.000  0.004  0.025  0.064  0.074
 
   msw1postfm_sc1_begin, k =       1
   msw1postfm_sc1_end  , k =  183388

 msw1postfm_qmodf_begin, k =       1
 msw1postfm_qmodf_end  , k =  183388
 
 iter_outer =  4 : [Hgwmsw - Hgwmodf] (svat=  21923)= -0.08009 m
 iter_outer =  4 : [Hgwmsw - Hgwmodf] (svat=  39932)=  0.03168 m
 

 Cumulative relative frequency distribution of [Hgwmsw-Hgwmodf](m)
 0.00000  1e-5   1e-4   1e-3   1e-2   0.5  1-1e-2 1-1e-3 1-1e-4 1-1e-5 1.00000
 -0.079 -0.075 -0.043 -0.002  0.000  0.000  0.000  0.002  0.009  0.026  0.032
 
   msw1postfm_sc1_begin, k =       1
   msw1postfm_sc1_end  , k =  183388

 msw1postfm_qmodf_begin, k =       1
 msw1postfm_qmodf_end  , k =  183388
 
 iter_outer =  5 : [Hgwmsw - Hgwmodf] (svat=  21923)= -0.07671 m
 iter_outer =  5 : [Hgwmsw - Hgwmodf] (svat=  39932)=  0.03238 m
 

 Cumulative relative frequency distribution of [Hgwmsw-Hgwmodf](m)
 0.00000  1e-5   1e-4   1e-3   1e-2   0.5  1-1e-2 1-1e-3 1-1e-4 1-1e-5 1.00000
 -0.076 -0.074 -0.044 -0.002  0.000  0.000  0.000  0.002  0.010  0.026  0.032
 
   msw1postfm_sc1_begin, k =       1
   msw1postfm_sc1_end  , k =  183388

 msw1postfm_qmodf_begin, k =       1
 msw1postfm_qmodf_end  , k =  183388
 
 iter_outer =  6 : [Hgwmsw - Hgwmodf] (svat=  21923)= -0.07996 m
 iter_outer =  6 : [Hgwmsw - Hgwmodf] (svat=  39932)=  0.03329 m
 

 Cumulative relative frequency distribution of [Hgwmsw-Hgwmodf](m)
 0.00000  1e-5   1e-4   1e-3   1e-2   0.5  1-1e-2 1-1e-3 1-1e-4 1-1e-5 1.00000
 -0.079 -0.075 -0.048 -0.002  0.000  0.000  0.000  0.002  0.010  0.028  0.033
 
   msw1postfm_sc1_begin, k =       1
   msw1postfm_sc1_end  , k =  183388

 msw1postfm_qmodf_begin, k =       1
 msw1postfm_qmodf_end  , k =  183388
 
 iter_outer =  7 : [Hgwmsw - Hgwmodf] (svat=  21923)= -0.07924 m
 iter_outer =  7 : [Hgwmsw - Hgwmodf] (svat=  39932)=  0.03350 m
 

 Cumulative relative frequency distribution of [Hgwmsw-Hgwmodf](m)
 0.00000  1e-5   1e-4   1e-3   1e-2   0.5  1-1e-2 1-1e-3 1-1e-4 1-1e-5 1.00000
 -0.078 -0.075 -0.048 -0.002  0.000  0.000  0.000  0.002  0.010  0.027  0.034
 
   msw1postfm_sc1_begin, k =       1
   msw1postfm_sc1_end  , k =  183388

 msw1postfm_qmodf_begin, k =       1
 msw1postfm_qmodf_end  , k =  183388
 
 iter_outer =  8 : [Hgwmsw - Hgwmodf] (svat=  21923)= -0.07986 m
 iter_outer =  8 : [Hgwmsw - Hgwmodf] (svat=  39932)=  0.03361 m
 

 Cumulative relative frequency distribution of [Hgwmsw-Hgwmodf](m)
 0.00000  1e-5   1e-4   1e-3   1e-2   0.5  1-1e-2 1-1e-3 1-1e-4 1-1e-5 1.00000
 -0.079 -0.075 -0.048 -0.002  0.000  0.000  0.000  0.002  0.010  0.027  0.034
 
   msw1postfm_sc1_begin, k =       1
   msw1postfm_sc1_end  , k =  183388

 msw1postfm_qmodf_begin, k =       1
 msw1postfm_qmodf_end  , k =  183388
 
 iter_outer =  9 : [Hgwmsw - Hgwmodf] (svat=  21923)= -0.07969 m
 iter_outer =  9 : [Hgwmsw - Hgwmodf] (svat=  39932)=  0.03367 m
 

 Cumulative relative frequency distribution of [Hgwmsw-Hgwmodf](m)
 0.00000  1e-5   1e-4   1e-3   1e-2   0.5  1-1e-2 1-1e-3 1-1e-4 1-1e-5 1.00000
 -0.079 -0.076 -0.048 -0.002  0.000  0.000  0.000  0.002  0.010  0.027  0.034
 
   msw1postfm_sc1_begin, k =       1
   msw1postfm_sc1_end  , k =  183388

 msw1postfm_qmodf_begin, k =       1
 msw1postfm_qmodf_end  , k =  183388
 
 iter_outer = 10 : [Hgwmsw - Hgwmodf] (svat=  21923)= -0.07982 m
 iter_outer = 10 : [Hgwmsw - Hgwmodf] (svat=  39932)=  0.03368 m
 

 Cumulative relative frequency distribution of [Hgwmsw-Hgwmodf](m)
 0.00000  1e-5   1e-4   1e-3   1e-2   0.5  1-1e-2 1-1e-3 1-1e-4 1-1e-5 1.00000
 -0.079 -0.076 -0.049 -0.002  0.000  0.000  0.000  0.002  0.010  0.027  0.034
 

 Smallest phreatic storage coefficient: sc1( 129411)= 0.01000 (m3/m2/m)
 
MODFLOW_end
 
MetaSWAP_finalize&write_begin,tiac =     2.00
msw1bd_begin,   k =       1
 max. water loss,     vcr(   6647)=  -0.00000 m3/m2
 max. water creation, vcr(   4608)=   0.00000 m3/m2
msw1bd_end,     k =  183388
 msw1sav_begin
 msw1sav_end
MetaSWAP_finalize&write_end, tiac =     2.00
MetaSWAP_rootzone_update_begin
MetaSWAP_rootzone_update_end  
 
MODFLOW_begin
iMOD Coupler: [1mNew simulation terminated normally[0m
 
 Run end date and time (yyyy/mm/dd hh:mm:ss): 2026/02/16 18:10:25
 Elapsed run time:  2 Minutes, 43.984 Seconds
 
 Normal termination of simulation.
MODFLOW_END
MetaSWAP_begin, tiac =     2.00
 msw1sav_begin
 msw1sav_end

** I28  simgro   **  E N D   O F   M E T A S W A P
                     -----------------------------
 

G:\models\NBr\Sim\NBr49>IF 0 NEQ 0 (ECHO AN ERROR WAS FOUND ERRORLEVEL ) 

G:\models\NBr\Sim\NBr49>ECHO OFF 
MODFLOW finished, postprocessing started 
=============================================
iMOD Batch Script iMOD V5_6_2
=============================================

 ==================================================
 Running iMOD: 
  exe: G:\software\iMOD5\imod_r.exe
  dir: G:\models\NBr\Sim\NBr49
 ==================================================


EXECUTING FUNCTION >>> MF6TOIDF <<<


iMODBATCH using tmp-folder:
  G:\models\NBr\Sim\NBr49\IMOD_TMP\BATCH1

SDATE=19930101000000
ISAVEENDDATE=0
DATEFORMAT=1
IFILLHEAD=0
SAVESHD=1,2,3,4,5,6,7,8,9,10,11,12,13,14,15,16,17,18,19,20,21,22,23,24,25,26,27,28,29,30,31,32,33,34,35,36,37
GRB=.\GWF_1\MODELINPUT\NBr49.DIS6.GRB
HED=.\GWF_1\MODELOUTPUT\HEAD\HEAD.HED
 Processing HEAD_19930101000000_L1 ...
 Processing HEAD_19930101000000_L2 ...
 Processing HEAD_19930101000000_L3 ...
 Processing HEAD_19930101000000_L4 ...
 Processing HEAD_19930101000000_L5 ...
 Processing HEAD_19930101000000_L6 ...
 Processing HEAD_19930101000000_L7 ...
 Processing HEAD_19930101000000_L8 ...
 Processing HEAD_19930101000000_L9 ...
 Processing HEAD_19930101000000_L10 ...
 Processing HEAD_19930101000000_L11 ...
 Processing HEAD_19930101000000_L12 ...
 Processing HEAD_19930101000000_L13 ...
 Processing HEAD_19930101000000_L14 ...
 Processing HEAD_19930101000000_L15 ...
 Processing HEAD_19930101000000_L16 ...
 Processing HEAD_19930101000000_L17 ...
 Processing HEAD_19930101000000_L18 ...
 Processing HEAD_19930101000000_L19 ...
 Processing HEAD_19930101000000_L20 ...
 Processing HEAD_19930101000000_L21 ...
 Processing HEAD_19930101000000_L22 ...
 Processing HEAD_19930101000000_L23 ...
 Processing HEAD_19930101000000_L24 ...
 Processing HEAD_19930101000000_L25 ...
 Processing HEAD_19930101000000_L26 ...
 Processing HEAD_19930101000000_L27 ...
 Processing HEAD_19930101000000_L28 ...
 Processing HEAD_19930101000000_L29 ...
 Processing HEAD_19930101000000_L30 ...
 Processing HEAD_19930101000000_L31 ...
 Processing HEAD_19930101000000_L32 ...
 Processing HEAD_19930101000000_L33 ...
 Processing HEAD_19930101000000_L34 ...
 Processing HEAD_19930101000000_L35 ...
 Processing HEAD_19930101000000_L36 ...
 Processing HEAD_19930101000000_L37 ...
 Processing HEAD_19930102000000_L1 ...
 Processing HEAD_19930102000000_L2 ...
 Processing HEAD_19930102000000_L3 ...
 Processing HEAD_19930102000000_L4 ...
 Processing HEAD_19930102000000_L5 ...
 Processing HEAD_19930102000000_L6 ...
 Processing HEAD_19930102000000_L7 ...
 Processing HEAD_19930102000000_L8 ...
 Processing HEAD_19930102000000_L9 ...
 Processing HEAD_19930102000000_L10 ...
 Processing HEAD_19930102000000_L11 ...
 Processing HEAD_19930102000000_L12 ...
 Processing HEAD_19930102000000_L13 ...
 Processing HEAD_19930102000000_L14 ...
 Processing HEAD_19930102000000_L15 ...
 Processing HEAD_19930102000000_L16 ...
 Processing HEAD_19930102000000_L17 ...
 Processing HEAD_19930102000000_L18 ...
 Processing HEAD_19930102000000_L19 ...
 Processing HEAD_19930102000000_L20 ...
 Processing HEAD_19930102000000_L21 ...
 Processing HEAD_19930102000000_L22 ...
 Processing HEAD_19930102000000_L23 ...
 Processing HEAD_19930102000000_L24 ...
 Processing HEAD_19930102000000_L25 ...
 Processing HEAD_19930102000000_L26 ...
 Processing HEAD_19930102000000_L27 ...
 Processing HEAD_19930102000000_L28 ...
 Processing HEAD_19930102000000_L29 ...
 Processing HEAD_19930102000000_L30 ...
 Processing HEAD_19930102000000_L31 ...
 Processing HEAD_19930102000000_L32 ...
 Processing HEAD_19930102000000_L33 ...
 Processing HEAD_19930102000000_L34 ...
 Processing HEAD_19930102000000_L35 ...
 Processing HEAD_19930102000000_L36 ...
 Processing HEAD_19930102000000_L37 ...

iMOD removed tmp-folder:
  G:\models\NBr\Sim\NBr49\IMOD_TMP\BATCH1

[Mon Feb 16 18:10:34 2026]
Finished jobid: 1 (Rule: Sim)
7 of 8 steps (88%) done
Select jobs to execute...
Execute 1 jobs...

[Mon Feb 16 18:10:34 2026]
localrule all:
    input: G:/models/NBr/code/snakemake/temp/Log_Sim_NBr49, G:/models/NBr/code/snakemake/temp/Log_freeze_env_NBr49
    jobid: 0
    reason: Input files updated by another job: G:/models/NBr/code/snakemake/temp/Log_freeze_env_NBr49, G:/models/NBr/code/snakemake/temp/Log_Sim_NBr49
    resources: tmpdir=C:\Users\Karam014\AppData\Local\Temp
Shell command: None
[Mon Feb 16 18:10:34 2026]
Finished jobid: 0 (Rule: all)
8 of 8 steps (100%) done
Complete log(s): G:\models\NBr\.snakemake\log\2026-02-16T180544.717328.snakemake.log
🟢 - INI file G:/models/NBr\code/Mdl_Prep/Mdl_Prep_NBr49.ini read successfully. Dictionary created with 21 keys.
Repo root: G:/
⚪️⚪️⚪️ No changes to tracked env/code files. Nothing to commit.
--------------------------------------------------------------------------------

Running add_OBS ...
🟢 - INI file G:/models/NBr\code/Mdl_Prep/Mdl_Prep_NBr49.ini read successfully. Dictionary created with 21 keys.
🟢 - Added OBS to G:/models/NBr\Sim/NBr49\GWF_1/MODELINPUT\NBr49.RIV6
🟢 - Added OBS to G:/models/NBr\Sim/NBr49\GWF_1/MODELINPUT\NBr49.DRN6
🟢 - IPF file G:\models\NBr\In\OBS\HD_OBS_WEL\NBr8\GWL_NBr8.ipf read successfully. DataFrame created with 9678 rows and 11 columns.
🟢 - G:/models/NBr\Sim/NBr49\GWF_1/MODELINPUT/NBr49.OBS6 has been added successfully!

end_of_transmission
--------------------------------------------------------------------------------

