Assuming unrestricted shared filesystem usage.
host: UU120516
Building DAG of jobs...
Provided cores: 10
Rules claiming more threads will be scaled down.
Job stats:
job                 count
----------------  -------
GXG                     1
Mdl_Prep                1
PRJ_to_TIF              1
Sim                     1
Up_MM                   1
add_DRN_OBS_copy        1
add_HD_OBS_WEL          1
add_RIV_OBS_copy        1
all                     1
freeze_pixi_env         1
log_Init                1
total                  11

Select jobs to execute...
Execute 2 jobs...

[Tue Feb 17 11:47:09 2026]
localrule log_Init:
    output: G:/models/NBr/code/snakemake/temp/Log_init_NBr50
    jobid: 4
    reason: Missing output files: G:/models/NBr/code/snakemake/temp/Log_init_NBr50
    resources: tmpdir=C:\Users\Karam014\AppData\Local\Temp
Shell command: None

[Tue Feb 17 11:47:09 2026]
localrule freeze_pixi_env:
    input: G:/pixi.toml, G:/pixi.lock, G:/code/WS_Mdl
    output: G:/models/NBr/code/snakemake/temp/Log_freeze_env_NBr50
    jobid: 10
    reason: Missing output files: G:/models/NBr/code/snakemake/temp/Log_freeze_env_NBr50
    resources: tmpdir=C:\Users\Karam014\AppData\Local\Temp
Shell command: None
[Tue Feb 17 11:47:09 2026]
Finished jobid: 4 (Rule: log_Init)
1 of 11 steps (9%) done
Select jobs to execute...
Execute 1 jobs...

[Tue Feb 17 11:47:09 2026]
localrule Mdl_Prep:
    input: G:/models/NBr/code/snakemake/temp/Log_init_NBr50, code/Mdl_Prep/Mdl_Prep_NBr50.bat, code/Mdl_Prep/Mdl_Prep_NBr50.ini, In/PRJ/NBr50.prj
    output: G:/models/NBr/Sim/NBr50/MFSIM.NAM
    jobid: 3
    reason: Missing output files: G:/models/NBr/Sim/NBr50/MFSIM.NAM; Input files updated by another job: G:/models/NBr/code/snakemake/temp/Log_init_NBr50
    resources: tmpdir=C:\Users\Karam014\AppData\Local\Temp
Shell command: call code/Mdl_Prep/Mdl_Prep_NBr50.bat
[Tue Feb 17 11:47:09 2026]
Finished jobid: 10 (Rule: freeze_pixi_env)
2 of 11 steps (18%) done

 ==================================================
 Running iMOD: 
  exe: G:\software\iMOD5\imod_r.exe
  dir: G:\models\NBr\code\Mdl_Prep
 ==================================================


EXECUTING FUNCTION >>> RUNFILE <<<


iMODBATCH using tmp-folder:
  G:\models\NBr\code\Mdl_Prep\IMOD_TMP\BATCH1

PRJFILE_IN=..\..\In\PRJ\NBr50.prj

Export to MODFLOW6 files

NAMFILE_OUT=..\..\Sim\NBr50\NBr50.nam
WINDOW=     113100.000     387600.000     125100.000     396200.000
CELLSIZE=         25.000
ISS=         1
SDATE=19930101000000
EDATE=19960101000000
ITT=             3
IDT=             1
Time step:     1 days
NSTEP=         1
ISTEADY=         0
SSYSTEM=         0
SAVESHD=-1
SAVEDRN=0
SAVERIV=0
SAVEWEL=0
SAVEFLX=0
PCKACTIVE=0
COUPLER=..\..\..\..\software\iMOD5\bin_MF6_6
ISOLVE=         0

iMOD found model with 37 layers

Reading BND-files (2.70%)      Reading BND-files (5.41%)      Reading BND-files (8.11%)      Reading BND-files (10.81%)      Reading BND-files (13.51%)      Reading BND-files (16.22%)      Reading BND-files (18.92%)      Reading BND-files (21.62%)      Reading BND-files (24.32%)      Reading BND-files (27.03%)      Reading BND-files (29.73%)      Reading BND-files (32.43%)      Reading BND-files (35.14%)      Reading BND-files (37.84%)      Reading BND-files (40.54%)      Reading BND-files (43.24%)      Reading BND-files (45.95%)      Reading BND-files (48.65%)      Reading BND-files (51.35%)      Reading BND-files (54.05%)      Reading BND-files (56.76%)      Reading BND-files (59.46%)      Reading BND-files (62.16%)      Reading BND-files (64.86%)      Reading BND-files (67.57%)      Reading BND-files (70.27%)      Reading BND-files (72.97%)      Reading BND-files (75.68%)      Reading BND-files (78.38%)      Reading BND-files (81.08%)      Reading BND-files (83.78%)      Reading BND-files (86.49%)      Reading BND-files (89.19%)      Reading BND-files (91.89%)      Reading BND-files (94.59%)      Reading BND-files (97.30%)      Reading BND-files (100.00%)      
 
Reading SHD-files (2.70%)      Reading SHD-files (5.41%)      Reading SHD-files (8.11%)      Reading SHD-files (10.81%)      Reading SHD-files (13.51%)      Reading SHD-files (16.22%)      Reading SHD-files (18.92%)      Reading SHD-files (21.62%)      Reading SHD-files (24.32%)      Reading SHD-files (27.03%)      Reading SHD-files (29.73%)      Reading SHD-files (32.43%)      Reading SHD-files (35.14%)      Reading SHD-files (37.84%)      Reading SHD-files (40.54%)      Reading SHD-files (43.24%)      Reading SHD-files (45.95%)      Reading SHD-files (48.65%)      Reading SHD-files (51.35%)      Reading SHD-files (54.05%)      Reading SHD-files (56.76%)      Reading SHD-files (59.46%)      Reading SHD-files (62.16%)      Reading SHD-files (64.86%)      Reading SHD-files (67.57%)      Reading SHD-files (70.27%)      Reading SHD-files (72.97%)      Reading SHD-files (75.68%)      Reading SHD-files (78.38%)      Reading SHD-files (81.08%)      Reading SHD-files (83.78%)      Reading SHD-files (86.49%)      Reading SHD-files (89.19%)      Reading SHD-files (91.89%)      Reading SHD-files (94.59%)      Reading SHD-files (97.30%)      Reading SHD-files (100.00%)      
 
Reading TOP/BOT-files (2.70%)      Reading TOP/BOT-files (5.41%)      Reading TOP/BOT-files (8.11%)      Reading TOP/BOT-files (10.81%)      Reading TOP/BOT-files (13.51%)      Reading TOP/BOT-files (16.22%)      Reading TOP/BOT-files (18.92%)      Reading TOP/BOT-files (21.62%)      Reading TOP/BOT-files (24.32%)      Reading TOP/BOT-files (27.03%)      Reading TOP/BOT-files (29.73%)      Reading TOP/BOT-files (32.43%)      Reading TOP/BOT-files (35.14%)      Reading TOP/BOT-files (37.84%)      Reading TOP/BOT-files (40.54%)      Reading TOP/BOT-files (43.24%)      Reading TOP/BOT-files (45.95%)      Reading TOP/BOT-files (48.65%)      Reading TOP/BOT-files (51.35%)      Reading TOP/BOT-files (54.05%)      Reading TOP/BOT-files (56.76%)      Reading TOP/BOT-files (59.46%)      Reading TOP/BOT-files (62.16%)      Reading TOP/BOT-files (64.86%)      Reading TOP/BOT-files (67.57%)      Reading TOP/BOT-files (70.27%)      Reading TOP/BOT-files (72.97%)      Reading TOP/BOT-files (75.68%)      Reading TOP/BOT-files (78.38%)      Reading TOP/BOT-files (81.08%)      Reading TOP/BOT-files (83.78%)      Reading TOP/BOT-files (86.49%)      Reading TOP/BOT-files (89.19%)      Reading TOP/BOT-files (91.89%)      Reading TOP/BOT-files (94.59%)      Reading TOP/BOT-files (97.30%)      Reading TOP/BOT-files (100.00%)      
 
Reading LPF-files Permeability components (2.70%)      Reading LPF-files Permeability components (5.41%)      Reading LPF-files Permeability components (8.11%)      Reading LPF-files Permeability components (10.81%)      Reading LPF-files Permeability components (13.51%)      Reading LPF-files Permeability components (16.22%)      Reading LPF-files Permeability components (18.92%)      Reading LPF-files Permeability components (21.62%)      Reading LPF-files Permeability components (24.32%)      Reading LPF-files Permeability components (27.03%)      Reading LPF-files Permeability components (29.73%)      Reading LPF-files Permeability components (32.43%)      Reading LPF-files Permeability components (35.14%)      Reading LPF-files Permeability components (37.84%)      Reading LPF-files Permeability components (40.54%)      Reading LPF-files Permeability components (43.24%)      Reading LPF-files Permeability components (45.95%)      Reading LPF-files Permeability components (48.65%)      Reading LPF-files Permeability components (51.35%)      Reading LPF-files Permeability components (54.05%)      Reading LPF-files Permeability components (56.76%)      Reading LPF-files Permeability components (59.46%)      Reading LPF-files Permeability components (62.16%)      Reading LPF-files Permeability components (64.86%)      Reading LPF-files Permeability components (67.57%)      Reading LPF-files Permeability components (70.27%)      Reading LPF-files Permeability components (72.97%)      Reading LPF-files Permeability components (75.68%)      Reading LPF-files Permeability components (78.38%)      Reading LPF-files Permeability components (81.08%)      Reading LPF-files Permeability components (83.78%)      Reading LPF-files Permeability components (86.49%)      Reading LPF-files Permeability components (89.19%)      Reading LPF-files Permeability components (91.89%)      Reading LPF-files Permeability components (94.59%)      Reading LPF-files Permeability components (97.30%)      Reading LPF-files Permeability components (100.00%)      
 
Reading LPF-files Storage components (2.70%)      Reading LPF-files Storage components (5.41%)      Reading LPF-files Storage components (8.11%)      Reading LPF-files Storage components (10.81%)      Reading LPF-files Storage components (13.51%)      Reading LPF-files Storage components (16.22%)      Reading LPF-files Storage components (18.92%)      Reading LPF-files Storage components (21.62%)      Reading LPF-files Storage components (24.32%)      Reading LPF-files Storage components (27.03%)      Reading LPF-files Storage components (29.73%)      Reading LPF-files Storage components (32.43%)      Reading LPF-files Storage components (35.14%)      Reading LPF-files Storage components (37.84%)      Reading LPF-files Storage components (40.54%)      Reading LPF-files Storage components (43.24%)      Reading LPF-files Storage components (45.95%)      Reading LPF-files Storage components (48.65%)      Reading LPF-files Storage components (51.35%)      Reading LPF-files Storage components (54.05%)      Reading LPF-files Storage components (56.76%)      Reading LPF-files Storage components (59.46%)      Reading LPF-files Storage components (62.16%)      Reading LPF-files Storage components (64.86%)      Reading LPF-files Storage components (67.57%)      Reading LPF-files Storage components (70.27%)      Reading LPF-files Storage components (72.97%)      Reading LPF-files Storage components (75.68%)      Reading LPF-files Storage components (78.38%)      Reading LPF-files Storage components (81.08%)      Reading LPF-files Storage components (83.78%)      Reading LPF-files Storage components (86.49%)      Reading LPF-files Storage components (89.19%)      Reading LPF-files Storage components (91.89%)      Reading LPF-files Storage components (94.59%)      Reading LPF-files Storage components (97.30%)      Reading LPF-files Storage components (100.00%)      
 

Writing ..\..\SIM\NBR50\GWF_1\MODELINPUT\NBR50.IC6...

Writing ..\..\SIM\NBR50\GWF_1\MODELINPUT\NBR50.DIS6...

Writing ..\..\SIM\NBR50\GWF_1\MODELINPUT\NBR50.NPF6...

Writing ..\..\SIM\NBR50\GWF_1\MODELINPUT\NBR50.STO6...

Writing ..\..\SIM\NBR50\GWF_1\MODELINPUT\NBR50.HFB6...

Writing ..\..\SIM\NBR50\GWF_1\MODELINPUT\NBR50.WEL6...
Exporting timestep      1  1095     1 19930101000000 19930102000000Exporting timestep      2  1095     1 19930102000000 19930103000000Exporting timestep      3  1095     1 19930103000000 19930104000000Exporting timestep      4  1095     1 19930104000000 19930105000000Exporting timestep      5  1095     1 19930105000000 19930106000000Exporting timestep      6  1095     1 19930106000000 19930107000000Exporting timestep      7  1095     1 19930107000000 19930108000000Exporting timestep      8  1095     1 19930108000000 19930109000000Exporting timestep      9  1095     1 19930109000000 19930110000000Exporting timestep     10  1095     1 19930110000000 19930111000000Exporting timestep     11  1095     1 19930111000000 19930112000000Exporting timestep     12  1095     1 19930112000000 19930113000000Exporting timestep     13  1095     1 19930113000000 19930114000000Exporting timestep     14  1095     1 19930114000000 19930115000000Exporting timestep     15  1095     1 19930115000000 19930116000000Exporting timestep     16  1095     1 19930116000000 19930117000000Exporting timestep     17  1095     1 19930117000000 19930118000000Exporting timestep     18  1095     1 19930118000000 19930119000000Exporting timestep     19  1095     1 19930119000000 19930120000000Exporting timestep     20  1095     1 19930120000000 19930121000000Exporting timestep     21  1095     1 19930121000000 19930122000000Exporting timestep     22  1095     1 19930122000000 19930123000000Exporting timestep     23  1095     1 19930123000000 19930124000000Exporting timestep     24  1095     1 19930124000000 19930125000000Exporting timestep     25  1095     1 19930125000000 19930126000000Exporting timestep     26  1095     1 19930126000000 19930127000000Exporting timestep     27  1095     1 19930127000000 19930128000000Exporting timestep     28  1095     1 19930128000000 19930129000000Exporting timestep     29  1095     1 19930129000000 19930130000000Exporting timestep     30  1095     1 19930130000000 19930131000000Exporting timestep     31  1095     1 19930131000000 19930201000000Exporting timestep     32  1095     1 19930201000000 19930202000000Exporting timestep     33  1095     1 19930202000000 19930203000000Exporting timestep     34  1095     1 19930203000000 19930204000000Exporting timestep     35  1095     1 19930204000000 19930205000000Exporting timestep     36  1095     1 19930205000000 19930206000000Exporting timestep     37  1095     1 19930206000000 19930207000000Exporting timestep     38  1095     1 19930207000000 19930208000000Exporting timestep     39  1095     1 19930208000000 19930209000000Exporting timestep     40  1095     1 19930209000000 19930210000000Exporting timestep     41  1095     1 19930210000000 19930211000000Exporting timestep     42  1095     1 19930211000000 19930212000000Exporting timestep     43  1095     1 19930212000000 19930213000000Exporting timestep     44  1095     1 19930213000000 19930214000000Exporting timestep     45  1095     1 19930214000000 19930215000000Exporting timestep     46  1095     1 19930215000000 19930216000000Exporting timestep     47  1095     1 19930216000000 19930217000000Exporting timestep     48  1095     1 19930217000000 19930218000000Exporting timestep     49  1095     1 19930218000000 19930219000000Exporting timestep     50  1095     1 19930219000000 19930220000000Exporting timestep     51  1095     1 19930220000000 19930221000000Exporting timestep     52  1095     1 19930221000000 19930222000000Exporting timestep     53  1095     1 19930222000000 19930223000000Exporting timestep     54  1095     1 19930223000000 19930224000000Exporting timestep     55  1095     1 19930224000000 19930225000000Exporting timestep     56  1095     1 19930225000000 19930226000000Exporting timestep     57  1095     1 19930226000000 19930227000000Exporting timestep     58  1095     1 19930227000000 19930228000000Exporting timestep     59  1095     1 19930228000000 19930301000000Exporting timestep     60  1095     1 19930301000000 19930302000000Exporting timestep     61  1095     1 19930302000000 19930303000000Exporting timestep     62  1095     1 19930303000000 19930304000000Exporting timestep     63  1095     1 19930304000000 19930305000000Exporting timestep     64  1095     1 19930305000000 19930306000000Exporting timestep     65  1095     1 19930306000000 19930307000000Exporting timestep     66  1095     1 19930307000000 19930308000000Exporting timestep     67  1095     1 19930308000000 19930309000000Exporting timestep     68  1095     1 19930309000000 19930310000000Exporting timestep     69  1095     1 19930310000000 19930311000000Exporting timestep     70  1095     1 19930311000000 19930312000000Exporting timestep     71  1095     1 19930312000000 19930313000000Exporting timestep     72  1095     1 19930313000000 19930314000000Exporting timestep     73  1095     1 19930314000000 19930315000000Exporting timestep     74  1095     1 19930315000000 19930316000000Exporting timestep     75  1095     1 19930316000000 19930317000000Exporting timestep     76  1095     1 19930317000000 19930318000000Exporting timestep     77  1095     1 19930318000000 19930319000000Exporting timestep     78  1095     1 19930319000000 19930320000000Exporting timestep     79  1095     1 19930320000000 19930321000000Exporting timestep     80  1095     1 19930321000000 19930322000000Exporting timestep     81  1095     1 19930322000000 19930323000000Exporting timestep     82  1095     1 19930323000000 19930324000000Exporting timestep     83  1095     1 19930324000000 19930325000000Exporting timestep     84  1095     1 19930325000000 19930326000000Exporting timestep     85  1095     1 19930326000000 19930327000000Exporting timestep     86  1095     1 19930327000000 19930328000000Exporting timestep     87  1095     1 19930328000000 19930329000000Exporting timestep     88  1095     1 19930329000000 19930330000000Exporting timestep     89  1095     1 19930330000000 19930331000000Exporting timestep     90  1095     1 19930331000000 19930401000000Exporting timestep     91  1095     1 19930401000000 19930402000000Exporting timestep     92  1095     1 19930402000000 19930403000000Exporting timestep     93  1095     1 19930403000000 19930404000000Exporting timestep     94  1095     1 19930404000000 19930405000000Exporting timestep     95  1095     1 19930405000000 19930406000000Exporting timestep     96  1095     1 19930406000000 19930407000000Exporting timestep     97  1095     1 19930407000000 19930408000000Exporting timestep     98  1095     1 19930408000000 19930409000000Exporting timestep     99  1095     1 19930409000000 19930410000000Exporting timestep    100  1095     1 19930410000000 19930411000000Exporting timestep    101  1095     1 19930411000000 19930412000000Exporting timestep    102  1095     1 19930412000000 19930413000000Exporting timestep    103  1095     1 19930413000000 19930414000000Exporting timestep    104  1095     1 19930414000000 19930415000000Exporting timestep    105  1095     1 19930415000000 19930416000000Exporting timestep    106  1095     1 19930416000000 19930417000000Exporting timestep    107  1095     1 19930417000000 19930418000000Exporting timestep    108  1095     1 19930418000000 19930419000000Exporting timestep    109  1095     1 19930419000000 19930420000000Exporting timestep    110  1095     1 19930420000000 19930421000000Exporting timestep    111  1095     1 19930421000000 19930422000000Exporting timestep    112  1095     1 19930422000000 19930423000000Exporting timestep    113  1095     1 19930423000000 19930424000000Exporting timestep    114  1095     1 19930424000000 19930425000000Exporting timestep    115  1095     1 19930425000000 19930426000000Exporting timestep    116  1095     1 19930426000000 19930427000000Exporting timestep    117  1095     1 19930427000000 19930428000000Exporting timestep    118  1095     1 19930428000000 19930429000000Exporting timestep    119  1095     1 19930429000000 19930430000000Exporting timestep    120  1095     1 19930430000000 19930501000000Exporting timestep    121  1095     1 19930501000000 19930502000000Exporting timestep    122  1095     1 19930502000000 19930503000000Exporting timestep    123  1095     1 19930503000000 19930504000000Exporting timestep    124  1095     1 19930504000000 19930505000000Exporting timestep    125  1095     1 19930505000000 19930506000000Exporting timestep    126  1095     1 19930506000000 19930507000000Exporting timestep    127  1095     1 19930507000000 19930508000000Exporting timestep    128  1095     1 19930508000000 19930509000000Exporting timestep    129  1095     1 19930509000000 19930510000000Exporting timestep    130  1095     1 19930510000000 19930511000000Exporting timestep    131  1095     1 19930511000000 19930512000000Exporting timestep    132  1095     1 19930512000000 19930513000000Exporting timestep    133  1095     1 19930513000000 19930514000000Exporting timestep    134  1095     1 19930514000000 19930515000000Exporting timestep    135  1095     1 19930515000000 19930516000000Exporting timestep    136  1095     1 19930516000000 19930517000000Exporting timestep    137  1095     1 19930517000000 19930518000000Exporting timestep    138  1095     1 19930518000000 19930519000000Exporting timestep    139  1095     1 19930519000000 19930520000000Exporting timestep    140  1095     1 19930520000000 19930521000000Exporting timestep    141  1095     1 19930521000000 19930522000000Exporting timestep    142  1095     1 19930522000000 19930523000000Exporting timestep    143  1095     1 19930523000000 19930524000000Exporting timestep    144  1095     1 19930524000000 19930525000000Exporting timestep    145  1095     1 19930525000000 19930526000000Exporting timestep    146  1095     1 19930526000000 19930527000000Exporting timestep    147  1095     1 19930527000000 19930528000000Exporting timestep    148  1095     1 19930528000000 19930529000000Exporting timestep    149  1095     1 19930529000000 19930530000000Exporting timestep    150  1095     1 19930530000000 19930531000000Exporting timestep    151  1095     1 19930531000000 19930601000000Exporting timestep    152  1095     1 19930601000000 19930602000000Exporting timestep    153  1095     1 19930602000000 19930603000000Exporting timestep    154  1095     1 19930603000000 19930604000000Exporting timestep    155  1095     1 19930604000000 19930605000000Exporting timestep    156  1095     1 19930605000000 19930606000000Exporting timestep    157  1095     1 19930606000000 19930607000000Exporting timestep    158  1095     1 19930607000000 19930608000000Exporting timestep    159  1095     1 19930608000000 19930609000000Exporting timestep    160  1095     1 19930609000000 19930610000000Exporting timestep    161  1095     1 19930610000000 19930611000000Exporting timestep    162  1095     1 19930611000000 19930612000000Exporting timestep    163  1095     1 19930612000000 19930613000000Exporting timestep    164  1095     1 19930613000000 19930614000000Exporting timestep    165  1095     1 19930614000000 19930615000000Exporting timestep    166  1095     1 19930615000000 19930616000000Exporting timestep    167  1095     1 19930616000000 19930617000000Exporting timestep    168  1095     1 19930617000000 19930618000000Exporting timestep    169  1095     1 19930618000000 19930619000000Exporting timestep    170  1095     1 19930619000000 19930620000000Exporting timestep    171  1095     1 19930620000000 19930621000000Exporting timestep    172  1095     1 19930621000000 19930622000000Exporting timestep    173  1095     1 19930622000000 19930623000000Exporting timestep    174  1095     1 19930623000000 19930624000000Exporting timestep    175  1095     1 19930624000000 19930625000000Exporting timestep    176  1095     1 19930625000000 19930626000000Exporting timestep    177  1095     1 19930626000000 19930627000000Exporting timestep    178  1095     1 19930627000000 19930628000000Exporting timestep    179  1095     1 19930628000000 19930629000000Exporting timestep    180  1095     1 19930629000000 19930630000000Exporting timestep    181  1095     1 19930630000000 19930701000000Exporting timestep    182  1095     1 19930701000000 19930702000000Exporting timestep    183  1095     1 19930702000000 19930703000000Exporting timestep    184  1095     1 19930703000000 19930704000000Exporting timestep    185  1095     1 19930704000000 19930705000000Exporting timestep    186  1095     1 19930705000000 19930706000000Exporting timestep    187  1095     1 19930706000000 19930707000000Exporting timestep    188  1095     1 19930707000000 19930708000000Exporting timestep    189  1095     1 19930708000000 19930709000000Exporting timestep    190  1095     1 19930709000000 19930710000000Exporting timestep    191  1095     1 19930710000000 19930711000000Exporting timestep    192  1095     1 19930711000000 19930712000000Exporting timestep    193  1095     1 19930712000000 19930713000000Exporting timestep    194  1095     1 19930713000000 19930714000000Exporting timestep    195  1095     1 19930714000000 19930715000000Exporting timestep    196  1095     1 19930715000000 19930716000000Exporting timestep    197  1095     1 19930716000000 19930717000000Exporting timestep    198  1095     1 19930717000000 19930718000000Exporting timestep    199  1095     1 19930718000000 19930719000000Exporting timestep    200  1095     1 19930719000000 19930720000000Exporting timestep    201  1095     1 19930720000000 19930721000000Exporting timestep    202  1095     1 19930721000000 19930722000000Exporting timestep    203  1095     1 19930722000000 19930723000000Exporting timestep    204  1095     1 19930723000000 19930724000000Exporting timestep    205  1095     1 19930724000000 19930725000000Exporting timestep    206  1095     1 19930725000000 19930726000000Exporting timestep    207  1095     1 19930726000000 19930727000000Exporting timestep    208  1095     1 19930727000000 19930728000000Exporting timestep    209  1095     1 19930728000000 19930729000000Exporting timestep    210  1095     1 19930729000000 19930730000000Exporting timestep    211  1095     1 19930730000000 19930731000000Exporting timestep    212  1095     1 19930731000000 19930801000000Exporting timestep    213  1095     1 19930801000000 19930802000000Exporting timestep    214  1095     1 19930802000000 19930803000000Exporting timestep    215  1095     1 19930803000000 19930804000000Exporting timestep    216  1095     1 19930804000000 19930805000000Exporting timestep    217  1095     1 19930805000000 19930806000000Exporting timestep    218  1095     1 19930806000000 19930807000000Exporting timestep    219  1095     1 19930807000000 19930808000000Exporting timestep    220  1095     1 19930808000000 19930809000000Exporting timestep    221  1095     1 19930809000000 19930810000000Exporting timestep    222  1095     1 19930810000000 19930811000000Exporting timestep    223  1095     1 19930811000000 19930812000000Exporting timestep    224  1095     1 19930812000000 19930813000000Exporting timestep    225  1095     1 19930813000000 19930814000000Exporting timestep    226  1095     1 19930814000000 19930815000000Exporting timestep    227  1095     1 19930815000000 19930816000000Exporting timestep    228  1095     1 19930816000000 19930817000000Exporting timestep    229  1095     1 19930817000000 19930818000000Exporting timestep    230  1095     1 19930818000000 19930819000000Exporting timestep    231  1095     1 19930819000000 19930820000000Exporting timestep    232  1095     1 19930820000000 19930821000000Exporting timestep    233  1095     1 19930821000000 19930822000000Exporting timestep    234  1095     1 19930822000000 19930823000000Exporting timestep    235  1095     1 19930823000000 19930824000000Exporting timestep    236  1095     1 19930824000000 19930825000000Exporting timestep    237  1095     1 19930825000000 19930826000000Exporting timestep    238  1095     1 19930826000000 19930827000000Exporting timestep    239  1095     1 19930827000000 19930828000000Exporting timestep    240  1095     1 19930828000000 19930829000000Exporting timestep    241  1095     1 19930829000000 19930830000000Exporting timestep    242  1095     1 19930830000000 19930831000000Exporting timestep    243  1095     1 19930831000000 19930901000000Exporting timestep    244  1095     1 19930901000000 19930902000000Exporting timestep    245  1095     1 19930902000000 19930903000000Exporting timestep    246  1095     1 19930903000000 19930904000000Exporting timestep    247  1095     1 19930904000000 19930905000000Exporting timestep    248  1095     1 19930905000000 19930906000000Exporting timestep    249  1095     1 19930906000000 19930907000000Exporting timestep    250  1095     1 19930907000000 19930908000000Exporting timestep    251  1095     1 19930908000000 19930909000000Exporting timestep    252  1095     1 19930909000000 19930910000000Exporting timestep    253  1095     1 19930910000000 19930911000000Exporting timestep    254  1095     1 19930911000000 19930912000000Exporting timestep    255  1095     1 19930912000000 19930913000000Exporting timestep    256  1095     1 19930913000000 19930914000000Exporting timestep    257  1095     1 19930914000000 19930915000000Exporting timestep    258  1095     1 19930915000000 19930916000000Exporting timestep    259  1095     1 19930916000000 19930917000000Exporting timestep    260  1095     1 19930917000000 19930918000000Exporting timestep    261  1095     1 19930918000000 19930919000000Exporting timestep    262  1095     1 19930919000000 19930920000000Exporting timestep    263  1095     1 19930920000000 19930921000000Exporting timestep    264  1095     1 19930921000000 19930922000000Exporting timestep    265  1095     1 19930922000000 19930923000000Exporting timestep    266  1095     1 19930923000000 19930924000000Exporting timestep    267  1095     1 19930924000000 19930925000000Exporting timestep    268  1095     1 19930925000000 19930926000000Exporting timestep    269  1095     1 19930926000000 19930927000000Exporting timestep    270  1095     1 19930927000000 19930928000000Exporting timestep    271  1095     1 19930928000000 19930929000000Exporting timestep    272  1095     1 19930929000000 19930930000000Exporting timestep    273  1095     1 19930930000000 19931001000000Exporting timestep    274  1095     1 19931001000000 19931002000000Exporting timestep    275  1095     1 19931002000000 19931003000000Exporting timestep    276  1095     1 19931003000000 19931004000000Exporting timestep    277  1095     1 19931004000000 19931005000000Exporting timestep    278  1095     1 19931005000000 19931006000000Exporting timestep    279  1095     1 19931006000000 19931007000000Exporting timestep    280  1095     1 19931007000000 19931008000000Exporting timestep    281  1095     1 19931008000000 19931009000000Exporting timestep    282  1095     1 19931009000000 19931010000000Exporting timestep    283  1095     1 19931010000000 19931011000000Exporting timestep    284  1095     1 19931011000000 19931012000000Exporting timestep    285  1095     1 19931012000000 19931013000000Exporting timestep    286  1095     1 19931013000000 19931014000000Exporting timestep    287  1095     1 19931014000000 19931015000000Exporting timestep    288  1095     1 19931015000000 19931016000000Exporting timestep    289  1095     1 19931016000000 19931017000000Exporting timestep    290  1095     1 19931017000000 19931018000000Exporting timestep    291  1095     1 19931018000000 19931019000000Exporting timestep    292  1095     1 19931019000000 19931020000000Exporting timestep    293  1095     1 19931020000000 19931021000000Exporting timestep    294  1095     1 19931021000000 19931022000000Exporting timestep    295  1095     1 19931022000000 19931023000000Exporting timestep    296  1095     1 19931023000000 19931024000000Exporting timestep    297  1095     1 19931024000000 19931025000000Exporting timestep    298  1095     1 19931025000000 19931026000000Exporting timestep    299  1095     1 19931026000000 19931027000000Exporting timestep    300  1095     1 19931027000000 19931028000000Exporting timestep    301  1095     1 19931028000000 19931029000000Exporting timestep    302  1095     1 19931029000000 19931030000000Exporting timestep    303  1095     1 19931030000000 19931031000000Exporting timestep    304  1095     1 19931031000000 19931101000000Exporting timestep    305  1095     1 19931101000000 19931102000000Exporting timestep    306  1095     1 19931102000000 19931103000000Exporting timestep    307  1095     1 19931103000000 19931104000000Exporting timestep    308  1095     1 19931104000000 19931105000000Exporting timestep    309  1095     1 19931105000000 19931106000000Exporting timestep    310  1095     1 19931106000000 19931107000000Exporting timestep    311  1095     1 19931107000000 19931108000000Exporting timestep    312  1095     1 19931108000000 19931109000000Exporting timestep    313  1095     1 19931109000000 19931110000000Exporting timestep    314  1095     1 19931110000000 19931111000000Exporting timestep    315  1095     1 19931111000000 19931112000000Exporting timestep    316  1095     1 19931112000000 19931113000000Exporting timestep    317  1095     1 19931113000000 19931114000000Exporting timestep    318  1095     1 19931114000000 19931115000000Exporting timestep    319  1095     1 19931115000000 19931116000000Exporting timestep    320  1095     1 19931116000000 19931117000000Exporting timestep    321  1095     1 19931117000000 19931118000000Exporting timestep    322  1095     1 19931118000000 19931119000000Exporting timestep    323  1095     1 19931119000000 19931120000000Exporting timestep    324  1095     1 19931120000000 19931121000000Exporting timestep    325  1095     1 19931121000000 19931122000000Exporting timestep    326  1095     1 19931122000000 19931123000000Exporting timestep    327  1095     1 19931123000000 19931124000000Exporting timestep    328  1095     1 19931124000000 19931125000000Exporting timestep    329  1095     1 19931125000000 19931126000000Exporting timestep    330  1095     1 19931126000000 19931127000000Exporting timestep    331  1095     1 19931127000000 19931128000000Exporting timestep    332  1095     1 19931128000000 19931129000000Exporting timestep    333  1095     1 19931129000000 19931130000000Exporting timestep    334  1095     1 19931130000000 19931201000000Exporting timestep    335  1095     1 19931201000000 19931202000000Exporting timestep    336  1095     1 19931202000000 19931203000000Exporting timestep    337  1095     1 19931203000000 19931204000000Exporting timestep    338  1095     1 19931204000000 19931205000000Exporting timestep    339  1095     1 19931205000000 19931206000000Exporting timestep    340  1095     1 19931206000000 19931207000000Exporting timestep    341  1095     1 19931207000000 19931208000000Exporting timestep    342  1095     1 19931208000000 19931209000000Exporting timestep    343  1095     1 19931209000000 19931210000000Exporting timestep    344  1095     1 19931210000000 19931211000000Exporting timestep    345  1095     1 19931211000000 19931212000000Exporting timestep    346  1095     1 19931212000000 19931213000000Exporting timestep    347  1095     1 19931213000000 19931214000000Exporting timestep    348  1095     1 19931214000000 19931215000000Exporting timestep    349  1095     1 19931215000000 19931216000000Exporting timestep    350  1095     1 19931216000000 19931217000000Exporting timestep    351  1095     1 19931217000000 19931218000000Exporting timestep    352  1095     1 19931218000000 19931219000000Exporting timestep    353  1095     1 19931219000000 19931220000000Exporting timestep    354  1095     1 19931220000000 19931221000000Exporting timestep    355  1095     1 19931221000000 19931222000000Exporting timestep    356  1095     1 19931222000000 19931223000000Exporting timestep    357  1095     1 19931223000000 19931224000000Exporting timestep    358  1095     1 19931224000000 19931225000000Exporting timestep    359  1095     1 19931225000000 19931226000000Exporting timestep    360  1095     1 19931226000000 19931227000000Exporting timestep    361  1095     1 19931227000000 19931228000000Exporting timestep    362  1095     1 19931228000000 19931229000000Exporting timestep    363  1095     1 19931229000000 19931230000000Exporting timestep    364  1095     1 19931230000000 19931231000000Exporting timestep    365  1095     1 19931231000000 19940101000000Exporting timestep    366  1095     1 19940101000000 19940102000000Exporting timestep    367  1095     1 19940102000000 19940103000000Exporting timestep    368  1095     1 19940103000000 19940104000000Exporting timestep    369  1095     1 19940104000000 19940105000000Exporting timestep    370  1095     1 19940105000000 19940106000000Exporting timestep    371  1095     1 19940106000000 19940107000000Exporting timestep    372  1095     1 19940107000000 19940108000000Exporting timestep    373  1095     1 19940108000000 19940109000000Exporting timestep    374  1095     1 19940109000000 19940110000000Exporting timestep    375  1095     1 19940110000000 19940111000000Exporting timestep    376  1095     1 19940111000000 19940112000000Exporting timestep    377  1095     1 19940112000000 19940113000000Exporting timestep    378  1095     1 19940113000000 19940114000000Exporting timestep    379  1095     1 19940114000000 19940115000000Exporting timestep    380  1095     1 19940115000000 19940116000000Exporting timestep    381  1095     1 19940116000000 19940117000000Exporting timestep    382  1095     1 19940117000000 19940118000000Exporting timestep    383  1095     1 19940118000000 19940119000000Exporting timestep    384  1095     1 19940119000000 19940120000000Exporting timestep    385  1095     1 19940120000000 19940121000000Exporting timestep    386  1095     1 19940121000000 19940122000000Exporting timestep    387  1095     1 19940122000000 19940123000000Exporting timestep    388  1095     1 19940123000000 19940124000000Exporting timestep    389  1095     1 19940124000000 19940125000000Exporting timestep    390  1095     1 19940125000000 19940126000000Exporting timestep    391  1095     1 19940126000000 19940127000000Exporting timestep    392  1095     1 19940127000000 19940128000000Exporting timestep    393  1095     1 19940128000000 19940129000000Exporting timestep    394  1095     1 19940129000000 19940130000000Exporting timestep    395  1095     1 19940130000000 19940131000000Exporting timestep    396  1095     1 19940131000000 19940201000000Exporting timestep    397  1095     1 19940201000000 19940202000000Exporting timestep    398  1095     1 19940202000000 19940203000000Exporting timestep    399  1095     1 19940203000000 19940204000000Exporting timestep    400  1095     1 19940204000000 19940205000000Exporting timestep    401  1095     1 19940205000000 19940206000000Exporting timestep    402  1095     1 19940206000000 19940207000000Exporting timestep    403  1095     1 19940207000000 19940208000000Exporting timestep    404  1095     1 19940208000000 19940209000000Exporting timestep    405  1095     1 19940209000000 19940210000000Exporting timestep    406  1095     1 19940210000000 19940211000000Exporting timestep    407  1095     1 19940211000000 19940212000000Exporting timestep    408  1095     1 19940212000000 19940213000000Exporting timestep    409  1095     1 19940213000000 19940214000000Exporting timestep    410  1095     1 19940214000000 19940215000000Exporting timestep    411  1095     1 19940215000000 19940216000000Exporting timestep    412  1095     1 19940216000000 19940217000000Exporting timestep    413  1095     1 19940217000000 19940218000000Exporting timestep    414  1095     1 19940218000000 19940219000000Exporting timestep    415  1095     1 19940219000000 19940220000000Exporting timestep    416  1095     1 19940220000000 19940221000000Exporting timestep    417  1095     1 19940221000000 19940222000000Exporting timestep    418  1095     1 19940222000000 19940223000000Exporting timestep    419  1095     1 19940223000000 19940224000000Exporting timestep    420  1095     1 19940224000000 19940225000000Exporting timestep    421  1095     1 19940225000000 19940226000000Exporting timestep    422  1095     1 19940226000000 19940227000000Exporting timestep    423  1095     1 19940227000000 19940228000000Exporting timestep    424  1095     1 19940228000000 19940301000000Exporting timestep    425  1095     1 19940301000000 19940302000000Exporting timestep    426  1095     1 19940302000000 19940303000000Exporting timestep    427  1095     1 19940303000000 19940304000000Exporting timestep    428  1095     1 19940304000000 19940305000000Exporting timestep    429  1095     1 19940305000000 19940306000000Exporting timestep    430  1095     1 19940306000000 19940307000000Exporting timestep    431  1095     1 19940307000000 19940308000000Exporting timestep    432  1095     1 19940308000000 19940309000000Exporting timestep    433  1095     1 19940309000000 19940310000000Exporting timestep    434  1095     1 19940310000000 19940311000000Exporting timestep    435  1095     1 19940311000000 19940312000000Exporting timestep    436  1095     1 19940312000000 19940313000000Exporting timestep    437  1095     1 19940313000000 19940314000000Exporting timestep    438  1095     1 19940314000000 19940315000000Exporting timestep    439  1095     1 19940315000000 19940316000000Exporting timestep    440  1095     1 19940316000000 19940317000000Exporting timestep    441  1095     1 19940317000000 19940318000000Exporting timestep    442  1095     1 19940318000000 19940319000000Exporting timestep    443  1095     1 19940319000000 19940320000000Exporting timestep    444  1095     1 19940320000000 19940321000000Exporting timestep    445  1095     1 19940321000000 19940322000000Exporting timestep    446  1095     1 19940322000000 19940323000000Exporting timestep    447  1095     1 19940323000000 19940324000000Exporting timestep    448  1095     1 19940324000000 19940325000000Exporting timestep    449  1095     1 19940325000000 19940326000000Exporting timestep    450  1095     1 19940326000000 19940327000000Exporting timestep    451  1095     1 19940327000000 19940328000000Exporting timestep    452  1095     1 19940328000000 19940329000000Exporting timestep    453  1095     1 19940329000000 19940330000000Exporting timestep    454  1095     1 19940330000000 19940331000000Exporting timestep    455  1095     1 19940331000000 19940401000000Exporting timestep    456  1095     1 19940401000000 19940402000000Exporting timestep    457  1095     1 19940402000000 19940403000000Exporting timestep    458  1095     1 19940403000000 19940404000000Exporting timestep    459  1095     1 19940404000000 19940405000000Exporting timestep    460  1095     1 19940405000000 19940406000000Exporting timestep    461  1095     1 19940406000000 19940407000000Exporting timestep    462  1095     1 19940407000000 19940408000000Exporting timestep    463  1095     1 19940408000000 19940409000000Exporting timestep    464  1095     1 19940409000000 19940410000000Exporting timestep    465  1095     1 19940410000000 19940411000000Exporting timestep    466  1095     1 19940411000000 19940412000000Exporting timestep    467  1095     1 19940412000000 19940413000000Exporting timestep    468  1095     1 19940413000000 19940414000000Exporting timestep    469  1095     1 19940414000000 19940415000000Exporting timestep    470  1095     1 19940415000000 19940416000000Exporting timestep    471  1095     1 19940416000000 19940417000000Exporting timestep    472  1095     1 19940417000000 19940418000000Exporting timestep    473  1095     1 19940418000000 19940419000000Exporting timestep    474  1095     1 19940419000000 19940420000000Exporting timestep    475  1095     1 19940420000000 19940421000000Exporting timestep    476  1095     1 19940421000000 19940422000000Exporting timestep    477  1095     1 19940422000000 19940423000000Exporting timestep    478  1095     1 19940423000000 19940424000000Exporting timestep    479  1095     1 19940424000000 19940425000000Exporting timestep    480  1095     1 19940425000000 19940426000000Exporting timestep    481  1095     1 19940426000000 19940427000000Exporting timestep    482  1095     1 19940427000000 19940428000000Exporting timestep    483  1095     1 19940428000000 19940429000000Exporting timestep    484  1095     1 19940429000000 19940430000000Exporting timestep    485  1095     1 19940430000000 19940501000000Exporting timestep    486  1095     1 19940501000000 19940502000000Exporting timestep    487  1095     1 19940502000000 19940503000000Exporting timestep    488  1095     1 19940503000000 19940504000000Exporting timestep    489  1095     1 19940504000000 19940505000000Exporting timestep    490  1095     1 19940505000000 19940506000000Exporting timestep    491  1095     1 19940506000000 19940507000000Exporting timestep    492  1095     1 19940507000000 19940508000000Exporting timestep    493  1095     1 19940508000000 19940509000000Exporting timestep    494  1095     1 19940509000000 19940510000000Exporting timestep    495  1095     1 19940510000000 19940511000000Exporting timestep    496  1095     1 19940511000000 19940512000000Exporting timestep    497  1095     1 19940512000000 19940513000000Exporting timestep    498  1095     1 19940513000000 19940514000000Exporting timestep    499  1095     1 19940514000000 19940515000000Exporting timestep    500  1095     1 19940515000000 19940516000000Exporting timestep    501  1095     1 19940516000000 19940517000000Exporting timestep    502  1095     1 19940517000000 19940518000000Exporting timestep    503  1095     1 19940518000000 19940519000000Exporting timestep    504  1095     1 19940519000000 19940520000000Exporting timestep    505  1095     1 19940520000000 19940521000000Exporting timestep    506  1095     1 19940521000000 19940522000000Exporting timestep    507  1095     1 19940522000000 19940523000000Exporting timestep    508  1095     1 19940523000000 19940524000000Exporting timestep    509  1095     1 19940524000000 19940525000000Exporting timestep    510  1095     1 19940525000000 19940526000000Exporting timestep    511  1095     1 19940526000000 19940527000000Exporting timestep    512  1095     1 19940527000000 19940528000000Exporting timestep    513  1095     1 19940528000000 19940529000000Exporting timestep    514  1095     1 19940529000000 19940530000000Exporting timestep    515  1095     1 19940530000000 19940531000000Exporting timestep    516  1095     1 19940531000000 19940601000000Exporting timestep    517  1095     1 19940601000000 19940602000000Exporting timestep    518  1095     1 19940602000000 19940603000000Exporting timestep    519  1095     1 19940603000000 19940604000000Exporting timestep    520  1095     1 19940604000000 19940605000000Exporting timestep    521  1095     1 19940605000000 19940606000000Exporting timestep    522  1095     1 19940606000000 19940607000000Exporting timestep    523  1095     1 19940607000000 19940608000000Exporting timestep    524  1095     1 19940608000000 19940609000000Exporting timestep    525  1095     1 19940609000000 19940610000000Exporting timestep    526  1095     1 19940610000000 19940611000000Exporting timestep    527  1095     1 19940611000000 19940612000000Exporting timestep    528  1095     1 19940612000000 19940613000000Exporting timestep    529  1095     1 19940613000000 19940614000000Exporting timestep    530  1095     1 19940614000000 19940615000000Exporting timestep    531  1095     1 19940615000000 19940616000000Exporting timestep    532  1095     1 19940616000000 19940617000000Exporting timestep    533  1095     1 19940617000000 19940618000000Exporting timestep    534  1095     1 19940618000000 19940619000000Exporting timestep    535  1095     1 19940619000000 19940620000000Exporting timestep    536  1095     1 19940620000000 19940621000000Exporting timestep    537  1095     1 19940621000000 19940622000000Exporting timestep    538  1095     1 19940622000000 19940623000000Exporting timestep    539  1095     1 19940623000000 19940624000000Exporting timestep    540  1095     1 19940624000000 19940625000000Exporting timestep    541  1095     1 19940625000000 19940626000000Exporting timestep    542  1095     1 19940626000000 19940627000000Exporting timestep    543  1095     1 19940627000000 19940628000000Exporting timestep    544  1095     1 19940628000000 19940629000000Exporting timestep    545  1095     1 19940629000000 19940630000000Exporting timestep    546  1095     1 19940630000000 19940701000000Exporting timestep    547  1095     1 19940701000000 19940702000000Exporting timestep    548  1095     1 19940702000000 19940703000000Exporting timestep    549  1095     1 19940703000000 19940704000000Exporting timestep    550  1095     1 19940704000000 19940705000000Exporting timestep    551  1095     1 19940705000000 19940706000000Exporting timestep    552  1095     1 19940706000000 19940707000000Exporting timestep    553  1095     1 19940707000000 19940708000000Exporting timestep    554  1095     1 19940708000000 19940709000000Exporting timestep    555  1095     1 19940709000000 19940710000000Exporting timestep    556  1095     1 19940710000000 19940711000000Exporting timestep    557  1095     1 19940711000000 19940712000000Exporting timestep    558  1095     1 19940712000000 19940713000000Exporting timestep    559  1095     1 19940713000000 19940714000000Exporting timestep    560  1095     1 19940714000000 19940715000000Exporting timestep    561  1095     1 19940715000000 19940716000000Exporting timestep    562  1095     1 19940716000000 19940717000000Exporting timestep    563  1095     1 19940717000000 19940718000000Exporting timestep    564  1095     1 19940718000000 19940719000000Exporting timestep    565  1095     1 19940719000000 19940720000000Exporting timestep    566  1095     1 19940720000000 19940721000000Exporting timestep    567  1095     1 19940721000000 19940722000000Exporting timestep    568  1095     1 19940722000000 19940723000000Exporting timestep    569  1095     1 19940723000000 19940724000000Exporting timestep    570  1095     1 19940724000000 19940725000000Exporting timestep    571  1095     1 19940725000000 19940726000000Exporting timestep    572  1095     1 19940726000000 19940727000000Exporting timestep    573  1095     1 19940727000000 19940728000000Exporting timestep    574  1095     1 19940728000000 19940729000000Exporting timestep    575  1095     1 19940729000000 19940730000000Exporting timestep    576  1095     1 19940730000000 19940731000000Exporting timestep    577  1095     1 19940731000000 19940801000000Exporting timestep    578  1095     1 19940801000000 19940802000000Exporting timestep    579  1095     1 19940802000000 19940803000000Exporting timestep    580  1095     1 19940803000000 19940804000000Exporting timestep    581  1095     1 19940804000000 19940805000000Exporting timestep    582  1095     1 19940805000000 19940806000000Exporting timestep    583  1095     1 19940806000000 19940807000000Exporting timestep    584  1095     1 19940807000000 19940808000000Exporting timestep    585  1095     1 19940808000000 19940809000000Exporting timestep    586  1095     1 19940809000000 19940810000000Exporting timestep    587  1095     1 19940810000000 19940811000000Exporting timestep    588  1095     1 19940811000000 19940812000000Exporting timestep    589  1095     1 19940812000000 19940813000000Exporting timestep    590  1095     1 19940813000000 19940814000000Exporting timestep    591  1095     1 19940814000000 19940815000000Exporting timestep    592  1095     1 19940815000000 19940816000000Exporting timestep    593  1095     1 19940816000000 19940817000000Exporting timestep    594  1095     1 19940817000000 19940818000000Exporting timestep    595  1095     1 19940818000000 19940819000000Exporting timestep    596  1095     1 19940819000000 19940820000000Exporting timestep    597  1095     1 19940820000000 19940821000000Exporting timestep    598  1095     1 19940821000000 19940822000000Exporting timestep    599  1095     1 19940822000000 19940823000000Exporting timestep    600  1095     1 19940823000000 19940824000000Exporting timestep    601  1095     1 19940824000000 19940825000000Exporting timestep    602  1095     1 19940825000000 19940826000000Exporting timestep    603  1095     1 19940826000000 19940827000000Exporting timestep    604  1095     1 19940827000000 19940828000000Exporting timestep    605  1095     1 19940828000000 19940829000000Exporting timestep    606  1095     1 19940829000000 19940830000000Exporting timestep    607  1095     1 19940830000000 19940831000000Exporting timestep    608  1095     1 19940831000000 19940901000000Exporting timestep    609  1095     1 19940901000000 19940902000000Exporting timestep    610  1095     1 19940902000000 19940903000000Exporting timestep    611  1095     1 19940903000000 19940904000000Exporting timestep    612  1095     1 19940904000000 19940905000000Exporting timestep    613  1095     1 19940905000000 19940906000000Exporting timestep    614  1095     1 19940906000000 19940907000000Exporting timestep    615  1095     1 19940907000000 19940908000000Exporting timestep    616  1095     1 19940908000000 19940909000000Exporting timestep    617  1095     1 19940909000000 19940910000000Exporting timestep    618  1095     1 19940910000000 19940911000000Exporting timestep    619  1095     1 19940911000000 19940912000000Exporting timestep    620  1095     1 19940912000000 19940913000000Exporting timestep    621  1095     1 19940913000000 19940914000000Exporting timestep    622  1095     1 19940914000000 19940915000000Exporting timestep    623  1095     1 19940915000000 19940916000000Exporting timestep    624  1095     1 19940916000000 19940917000000Exporting timestep    625  1095     1 19940917000000 19940918000000Exporting timestep    626  1095     1 19940918000000 19940919000000Exporting timestep    627  1095     1 19940919000000 19940920000000Exporting timestep    628  1095     1 19940920000000 19940921000000Exporting timestep    629  1095     1 19940921000000 19940922000000Exporting timestep    630  1095     1 19940922000000 19940923000000Exporting timestep    631  1095     1 19940923000000 19940924000000Exporting timestep    632  1095     1 19940924000000 19940925000000Exporting timestep    633  1095     1 19940925000000 19940926000000Exporting timestep    634  1095     1 19940926000000 19940927000000Exporting timestep    635  1095     1 19940927000000 19940928000000Exporting timestep    636  1095     1 19940928000000 19940929000000Exporting timestep    637  1095     1 19940929000000 19940930000000Exporting timestep    638  1095     1 19940930000000 19941001000000Exporting timestep    639  1095     1 19941001000000 19941002000000Exporting timestep    640  1095     1 19941002000000 19941003000000Exporting timestep    641  1095     1 19941003000000 19941004000000Exporting timestep    642  1095     1 19941004000000 19941005000000Exporting timestep    643  1095     1 19941005000000 19941006000000Exporting timestep    644  1095     1 19941006000000 19941007000000Exporting timestep    645  1095     1 19941007000000 19941008000000Exporting timestep    646  1095     1 19941008000000 19941009000000Exporting timestep    647  1095     1 19941009000000 19941010000000Exporting timestep    648  1095     1 19941010000000 19941011000000Exporting timestep    649  1095     1 19941011000000 19941012000000Exporting timestep    650  1095     1 19941012000000 19941013000000Exporting timestep    651  1095     1 19941013000000 19941014000000Exporting timestep    652  1095     1 19941014000000 19941015000000Exporting timestep    653  1095     1 19941015000000 19941016000000Exporting timestep    654  1095     1 19941016000000 19941017000000Exporting timestep    655  1095     1 19941017000000 19941018000000Exporting timestep    656  1095     1 19941018000000 19941019000000Exporting timestep    657  1095     1 19941019000000 19941020000000Exporting timestep    658  1095     1 19941020000000 19941021000000Exporting timestep    659  1095     1 19941021000000 19941022000000Exporting timestep    660  1095     1 19941022000000 19941023000000Exporting timestep    661  1095     1 19941023000000 19941024000000Exporting timestep    662  1095     1 19941024000000 19941025000000Exporting timestep    663  1095     1 19941025000000 19941026000000Exporting timestep    664  1095     1 19941026000000 19941027000000Exporting timestep    665  1095     1 19941027000000 19941028000000Exporting timestep    666  1095     1 19941028000000 19941029000000Exporting timestep    667  1095     1 19941029000000 19941030000000Exporting timestep    668  1095     1 19941030000000 19941031000000Exporting timestep    669  1095     1 19941031000000 19941101000000Exporting timestep    670  1095     1 19941101000000 19941102000000Exporting timestep    671  1095     1 19941102000000 19941103000000Exporting timestep    672  1095     1 19941103000000 19941104000000Exporting timestep    673  1095     1 19941104000000 19941105000000Exporting timestep    674  1095     1 19941105000000 19941106000000Exporting timestep    675  1095     1 19941106000000 19941107000000Exporting timestep    676  1095     1 19941107000000 19941108000000Exporting timestep    677  1095     1 19941108000000 19941109000000Exporting timestep    678  1095     1 19941109000000 19941110000000Exporting timestep    679  1095     1 19941110000000 19941111000000Exporting timestep    680  1095     1 19941111000000 19941112000000Exporting timestep    681  1095     1 19941112000000 19941113000000Exporting timestep    682  1095     1 19941113000000 19941114000000Exporting timestep    683  1095     1 19941114000000 19941115000000Exporting timestep    684  1095     1 19941115000000 19941116000000Exporting timestep    685  1095     1 19941116000000 19941117000000Exporting timestep    686  1095     1 19941117000000 19941118000000Exporting timestep    687  1095     1 19941118000000 19941119000000Exporting timestep    688  1095     1 19941119000000 19941120000000Exporting timestep    689  1095     1 19941120000000 19941121000000Exporting timestep    690  1095     1 19941121000000 19941122000000Exporting timestep    691  1095     1 19941122000000 19941123000000Exporting timestep    692  1095     1 19941123000000 19941124000000Exporting timestep    693  1095     1 19941124000000 19941125000000Exporting timestep    694  1095     1 19941125000000 19941126000000Exporting timestep    695  1095     1 19941126000000 19941127000000Exporting timestep    696  1095     1 19941127000000 19941128000000Exporting timestep    697  1095     1 19941128000000 19941129000000Exporting timestep    698  1095     1 19941129000000 19941130000000Exporting timestep    699  1095     1 19941130000000 19941201000000Exporting timestep    700  1095     1 19941201000000 19941202000000Exporting timestep    701  1095     1 19941202000000 19941203000000Exporting timestep    702  1095     1 19941203000000 19941204000000Exporting timestep    703  1095     1 19941204000000 19941205000000Exporting timestep    704  1095     1 19941205000000 19941206000000Exporting timestep    705  1095     1 19941206000000 19941207000000Exporting timestep    706  1095     1 19941207000000 19941208000000Exporting timestep    707  1095     1 19941208000000 19941209000000Exporting timestep    708  1095     1 19941209000000 19941210000000Exporting timestep    709  1095     1 19941210000000 19941211000000Exporting timestep    710  1095     1 19941211000000 19941212000000Exporting timestep    711  1095     1 19941212000000 19941213000000Exporting timestep    712  1095     1 19941213000000 19941214000000Exporting timestep    713  1095     1 19941214000000 19941215000000Exporting timestep    714  1095     1 19941215000000 19941216000000Exporting timestep    715  1095     1 19941216000000 19941217000000Exporting timestep    716  1095     1 19941217000000 19941218000000Exporting timestep    717  1095     1 19941218000000 19941219000000Exporting timestep    718  1095     1 19941219000000 19941220000000Exporting timestep    719  1095     1 19941220000000 19941221000000Exporting timestep    720  1095     1 19941221000000 19941222000000Exporting timestep    721  1095     1 19941222000000 19941223000000Exporting timestep    722  1095     1 19941223000000 19941224000000Exporting timestep    723  1095     1 19941224000000 19941225000000Exporting timestep    724  1095     1 19941225000000 19941226000000Exporting timestep    725  1095     1 19941226000000 19941227000000Exporting timestep    726  1095     1 19941227000000 19941228000000Exporting timestep    727  1095     1 19941228000000 19941229000000Exporting timestep    728  1095     1 19941229000000 19941230000000Exporting timestep    729  1095     1 19941230000000 19941231000000Exporting timestep    730  1095     1 19941231000000 19950101000000Exporting timestep    731  1095     1 19950101000000 19950102000000Exporting timestep    732  1095     1 19950102000000 19950103000000Exporting timestep    733  1095     1 19950103000000 19950104000000Exporting timestep    734  1095     1 19950104000000 19950105000000Exporting timestep    735  1095     1 19950105000000 19950106000000Exporting timestep    736  1095     1 19950106000000 19950107000000Exporting timestep    737  1095     1 19950107000000 19950108000000Exporting timestep    738  1095     1 19950108000000 19950109000000Exporting timestep    739  1095     1 19950109000000 19950110000000Exporting timestep    740  1095     1 19950110000000 19950111000000Exporting timestep    741  1095     1 19950111000000 19950112000000Exporting timestep    742  1095     1 19950112000000 19950113000000Exporting timestep    743  1095     1 19950113000000 19950114000000Exporting timestep    744  1095     1 19950114000000 19950115000000Exporting timestep    745  1095     1 19950115000000 19950116000000Exporting timestep    746  1095     1 19950116000000 19950117000000Exporting timestep    747  1095     1 19950117000000 19950118000000Exporting timestep    748  1095     1 19950118000000 19950119000000Exporting timestep    749  1095     1 19950119000000 19950120000000Exporting timestep    750  1095     1 19950120000000 19950121000000Exporting timestep    751  1095     1 19950121000000 19950122000000Exporting timestep    752  1095     1 19950122000000 19950123000000Exporting timestep    753  1095     1 19950123000000 19950124000000Exporting timestep    754  1095     1 19950124000000 19950125000000Exporting timestep    755  1095     1 19950125000000 19950126000000Exporting timestep    756  1095     1 19950126000000 19950127000000Exporting timestep    757  1095     1 19950127000000 19950128000000Exporting timestep    758  1095     1 19950128000000 19950129000000Exporting timestep    759  1095     1 19950129000000 19950130000000Exporting timestep    760  1095     1 19950130000000 19950131000000Exporting timestep    761  1095     1 19950131000000 19950201000000Exporting timestep    762  1095     1 19950201000000 19950202000000Exporting timestep    763  1095     1 19950202000000 19950203000000Exporting timestep    764  1095     1 19950203000000 19950204000000Exporting timestep    765  1095     1 19950204000000 19950205000000Exporting timestep    766  1095     1 19950205000000 19950206000000Exporting timestep    767  1095     1 19950206000000 19950207000000Exporting timestep    768  1095     1 19950207000000 19950208000000Exporting timestep    769  1095     1 19950208000000 19950209000000Exporting timestep    770  1095     1 19950209000000 19950210000000Exporting timestep    771  1095     1 19950210000000 19950211000000Exporting timestep    772  1095     1 19950211000000 19950212000000Exporting timestep    773  1095     1 19950212000000 19950213000000Exporting timestep    774  1095     1 19950213000000 19950214000000Exporting timestep    775  1095     1 19950214000000 19950215000000Exporting timestep    776  1095     1 19950215000000 19950216000000Exporting timestep    777  1095     1 19950216000000 19950217000000Exporting timestep    778  1095     1 19950217000000 19950218000000Exporting timestep    779  1095     1 19950218000000 19950219000000Exporting timestep    780  1095     1 19950219000000 19950220000000Exporting timestep    781  1095     1 19950220000000 19950221000000Exporting timestep    782  1095     1 19950221000000 19950222000000Exporting timestep    783  1095     1 19950222000000 19950223000000Exporting timestep    784  1095     1 19950223000000 19950224000000Exporting timestep    785  1095     1 19950224000000 19950225000000Exporting timestep    786  1095     1 19950225000000 19950226000000Exporting timestep    787  1095     1 19950226000000 19950227000000Exporting timestep    788  1095     1 19950227000000 19950228000000Exporting timestep    789  1095     1 19950228000000 19950301000000Exporting timestep    790  1095     1 19950301000000 19950302000000Exporting timestep    791  1095     1 19950302000000 19950303000000Exporting timestep    792  1095     1 19950303000000 19950304000000Exporting timestep    793  1095     1 19950304000000 19950305000000Exporting timestep    794  1095     1 19950305000000 19950306000000Exporting timestep    795  1095     1 19950306000000 19950307000000Exporting timestep    796  1095     1 19950307000000 19950308000000Exporting timestep    797  1095     1 19950308000000 19950309000000Exporting timestep    798  1095     1 19950309000000 19950310000000Exporting timestep    799  1095     1 19950310000000 19950311000000Exporting timestep    800  1095     1 19950311000000 19950312000000Exporting timestep    801  1095     1 19950312000000 19950313000000Exporting timestep    802  1095     1 19950313000000 19950314000000Exporting timestep    803  1095     1 19950314000000 19950315000000Exporting timestep    804  1095     1 19950315000000 19950316000000Exporting timestep    805  1095     1 19950316000000 19950317000000Exporting timestep    806  1095     1 19950317000000 19950318000000Exporting timestep    807  1095     1 19950318000000 19950319000000Exporting timestep    808  1095     1 19950319000000 19950320000000Exporting timestep    809  1095     1 19950320000000 19950321000000Exporting timestep    810  1095     1 19950321000000 19950322000000Exporting timestep    811  1095     1 19950322000000 19950323000000Exporting timestep    812  1095     1 19950323000000 19950324000000Exporting timestep    813  1095     1 19950324000000 19950325000000Exporting timestep    814  1095     1 19950325000000 19950326000000Exporting timestep    815  1095     1 19950326000000 19950327000000Exporting timestep    816  1095     1 19950327000000 19950328000000Exporting timestep    817  1095     1 19950328000000 19950329000000Exporting timestep    818  1095     1 19950329000000 19950330000000Exporting timestep    819  1095     1 19950330000000 19950331000000Exporting timestep    820  1095     1 19950331000000 19950401000000Exporting timestep    821  1095     1 19950401000000 19950402000000Exporting timestep    822  1095     1 19950402000000 19950403000000Exporting timestep    823  1095     1 19950403000000 19950404000000Exporting timestep    824  1095     1 19950404000000 19950405000000Exporting timestep    825  1095     1 19950405000000 19950406000000Exporting timestep    826  1095     1 19950406000000 19950407000000Exporting timestep    827  1095     1 19950407000000 19950408000000Exporting timestep    828  1095     1 19950408000000 19950409000000Exporting timestep    829  1095     1 19950409000000 19950410000000Exporting timestep    830  1095     1 19950410000000 19950411000000Exporting timestep    831  1095     1 19950411000000 19950412000000Exporting timestep    832  1095     1 19950412000000 19950413000000Exporting timestep    833  1095     1 19950413000000 19950414000000Exporting timestep    834  1095     1 19950414000000 19950415000000Exporting timestep    835  1095     1 19950415000000 19950416000000Exporting timestep    836  1095     1 19950416000000 19950417000000Exporting timestep    837  1095     1 19950417000000 19950418000000Exporting timestep    838  1095     1 19950418000000 19950419000000Exporting timestep    839  1095     1 19950419000000 19950420000000Exporting timestep    840  1095     1 19950420000000 19950421000000Exporting timestep    841  1095     1 19950421000000 19950422000000Exporting timestep    842  1095     1 19950422000000 19950423000000Exporting timestep    843  1095     1 19950423000000 19950424000000Exporting timestep    844  1095     1 19950424000000 19950425000000Exporting timestep    845  1095     1 19950425000000 19950426000000Exporting timestep    846  1095     1 19950426000000 19950427000000Exporting timestep    847  1095     1 19950427000000 19950428000000Exporting timestep    848  1095     1 19950428000000 19950429000000Exporting timestep    849  1095     1 19950429000000 19950430000000Exporting timestep    850  1095     1 19950430000000 19950501000000Exporting timestep    851  1095     1 19950501000000 19950502000000Exporting timestep    852  1095     1 19950502000000 19950503000000Exporting timestep    853  1095     1 19950503000000 19950504000000Exporting timestep    854  1095     1 19950504000000 19950505000000Exporting timestep    855  1095     1 19950505000000 19950506000000Exporting timestep    856  1095     1 19950506000000 19950507000000Exporting timestep    857  1095     1 19950507000000 19950508000000Exporting timestep    858  1095     1 19950508000000 19950509000000Exporting timestep    859  1095     1 19950509000000 19950510000000Exporting timestep    860  1095     1 19950510000000 19950511000000Exporting timestep    861  1095     1 19950511000000 19950512000000Exporting timestep    862  1095     1 19950512000000 19950513000000Exporting timestep    863  1095     1 19950513000000 19950514000000Exporting timestep    864  1095     1 19950514000000 19950515000000Exporting timestep    865  1095     1 19950515000000 19950516000000Exporting timestep    866  1095     1 19950516000000 19950517000000Exporting timestep    867  1095     1 19950517000000 19950518000000Exporting timestep    868  1095     1 19950518000000 19950519000000Exporting timestep    869  1095     1 19950519000000 19950520000000Exporting timestep    870  1095     1 19950520000000 19950521000000Exporting timestep    871  1095     1 19950521000000 19950522000000Exporting timestep    872  1095     1 19950522000000 19950523000000Exporting timestep    873  1095     1 19950523000000 19950524000000Exporting timestep    874  1095     1 19950524000000 19950525000000Exporting timestep    875  1095     1 19950525000000 19950526000000Exporting timestep    876  1095     1 19950526000000 19950527000000Exporting timestep    877  1095     1 19950527000000 19950528000000Exporting timestep    878  1095     1 19950528000000 19950529000000Exporting timestep    879  1095     1 19950529000000 19950530000000Exporting timestep    880  1095     1 19950530000000 19950531000000Exporting timestep    881  1095     1 19950531000000 19950601000000Exporting timestep    882  1095     1 19950601000000 19950602000000Exporting timestep    883  1095     1 19950602000000 19950603000000Exporting timestep    884  1095     1 19950603000000 19950604000000Exporting timestep    885  1095     1 19950604000000 19950605000000Exporting timestep    886  1095     1 19950605000000 19950606000000Exporting timestep    887  1095     1 19950606000000 19950607000000Exporting timestep    888  1095     1 19950607000000 19950608000000Exporting timestep    889  1095     1 19950608000000 19950609000000Exporting timestep    890  1095     1 19950609000000 19950610000000Exporting timestep    891  1095     1 19950610000000 19950611000000Exporting timestep    892  1095     1 19950611000000 19950612000000Exporting timestep    893  1095     1 19950612000000 19950613000000Exporting timestep    894  1095     1 19950613000000 19950614000000Exporting timestep    895  1095     1 19950614000000 19950615000000Exporting timestep    896  1095     1 19950615000000 19950616000000Exporting timestep    897  1095     1 19950616000000 19950617000000Exporting timestep    898  1095     1 19950617000000 19950618000000Exporting timestep    899  1095     1 19950618000000 19950619000000Exporting timestep    900  1095     1 19950619000000 19950620000000Exporting timestep    901  1095     1 19950620000000 19950621000000Exporting timestep    902  1095     1 19950621000000 19950622000000Exporting timestep    903  1095     1 19950622000000 19950623000000Exporting timestep    904  1095     1 19950623000000 19950624000000Exporting timestep    905  1095     1 19950624000000 19950625000000Exporting timestep    906  1095     1 19950625000000 19950626000000Exporting timestep    907  1095     1 19950626000000 19950627000000Exporting timestep    908  1095     1 19950627000000 19950628000000Exporting timestep    909  1095     1 19950628000000 19950629000000Exporting timestep    910  1095     1 19950629000000 19950630000000Exporting timestep    911  1095     1 19950630000000 19950701000000Exporting timestep    912  1095     1 19950701000000 19950702000000Exporting timestep    913  1095     1 19950702000000 19950703000000Exporting timestep    914  1095     1 19950703000000 19950704000000Exporting timestep    915  1095     1 19950704000000 19950705000000Exporting timestep    916  1095     1 19950705000000 19950706000000Exporting timestep    917  1095     1 19950706000000 19950707000000Exporting timestep    918  1095     1 19950707000000 19950708000000Exporting timestep    919  1095     1 19950708000000 19950709000000Exporting timestep    920  1095     1 19950709000000 19950710000000Exporting timestep    921  1095     1 19950710000000 19950711000000Exporting timestep    922  1095     1 19950711000000 19950712000000Exporting timestep    923  1095     1 19950712000000 19950713000000Exporting timestep    924  1095     1 19950713000000 19950714000000Exporting timestep    925  1095     1 19950714000000 19950715000000Exporting timestep    926  1095     1 19950715000000 19950716000000Exporting timestep    927  1095     1 19950716000000 19950717000000Exporting timestep    928  1095     1 19950717000000 19950718000000Exporting timestep    929  1095     1 19950718000000 19950719000000Exporting timestep    930  1095     1 19950719000000 19950720000000Exporting timestep    931  1095     1 19950720000000 19950721000000Exporting timestep    932  1095     1 19950721000000 19950722000000Exporting timestep    933  1095     1 19950722000000 19950723000000Exporting timestep    934  1095     1 19950723000000 19950724000000Exporting timestep    935  1095     1 19950724000000 19950725000000Exporting timestep    936  1095     1 19950725000000 19950726000000Exporting timestep    937  1095     1 19950726000000 19950727000000Exporting timestep    938  1095     1 19950727000000 19950728000000Exporting timestep    939  1095     1 19950728000000 19950729000000Exporting timestep    940  1095     1 19950729000000 19950730000000Exporting timestep    941  1095     1 19950730000000 19950731000000Exporting timestep    942  1095     1 19950731000000 19950801000000Exporting timestep    943  1095     1 19950801000000 19950802000000Exporting timestep    944  1095     1 19950802000000 19950803000000Exporting timestep    945  1095     1 19950803000000 19950804000000Exporting timestep    946  1095     1 19950804000000 19950805000000Exporting timestep    947  1095     1 19950805000000 19950806000000Exporting timestep    948  1095     1 19950806000000 19950807000000Exporting timestep    949  1095     1 19950807000000 19950808000000Exporting timestep    950  1095     1 19950808000000 19950809000000Exporting timestep    951  1095     1 19950809000000 19950810000000Exporting timestep    952  1095     1 19950810000000 19950811000000Exporting timestep    953  1095     1 19950811000000 19950812000000Exporting timestep    954  1095     1 19950812000000 19950813000000Exporting timestep    955  1095     1 19950813000000 19950814000000Exporting timestep    956  1095     1 19950814000000 19950815000000Exporting timestep    957  1095     1 19950815000000 19950816000000Exporting timestep    958  1095     1 19950816000000 19950817000000Exporting timestep    959  1095     1 19950817000000 19950818000000Exporting timestep    960  1095     1 19950818000000 19950819000000Exporting timestep    961  1095     1 19950819000000 19950820000000Exporting timestep    962  1095     1 19950820000000 19950821000000Exporting timestep    963  1095     1 19950821000000 19950822000000Exporting timestep    964  1095     1 19950822000000 19950823000000Exporting timestep    965  1095     1 19950823000000 19950824000000Exporting timestep    966  1095     1 19950824000000 19950825000000Exporting timestep    967  1095     1 19950825000000 19950826000000Exporting timestep    968  1095     1 19950826000000 19950827000000Exporting timestep    969  1095     1 19950827000000 19950828000000Exporting timestep    970  1095     1 19950828000000 19950829000000Exporting timestep    971  1095     1 19950829000000 19950830000000Exporting timestep    972  1095     1 19950830000000 19950831000000Exporting timestep    973  1095     1 19950831000000 19950901000000Exporting timestep    974  1095     1 19950901000000 19950902000000Exporting timestep    975  1095     1 19950902000000 19950903000000Exporting timestep    976  1095     1 19950903000000 19950904000000Exporting timestep    977  1095     1 19950904000000 19950905000000Exporting timestep    978  1095     1 19950905000000 19950906000000Exporting timestep    979  1095     1 19950906000000 19950907000000Exporting timestep    980  1095     1 19950907000000 19950908000000Exporting timestep    981  1095     1 19950908000000 19950909000000Exporting timestep    982  1095     1 19950909000000 19950910000000Exporting timestep    983  1095     1 19950910000000 19950911000000Exporting timestep    984  1095     1 19950911000000 19950912000000Exporting timestep    985  1095     1 19950912000000 19950913000000Exporting timestep    986  1095     1 19950913000000 19950914000000Exporting timestep    987  1095     1 19950914000000 19950915000000Exporting timestep    988  1095     1 19950915000000 19950916000000Exporting timestep    989  1095     1 19950916000000 19950917000000Exporting timestep    990  1095     1 19950917000000 19950918000000Exporting timestep    991  1095     1 19950918000000 19950919000000Exporting timestep    992  1095     1 19950919000000 19950920000000Exporting timestep    993  1095     1 19950920000000 19950921000000Exporting timestep    994  1095     1 19950921000000 19950922000000Exporting timestep    995  1095     1 19950922000000 19950923000000Exporting timestep    996  1095     1 19950923000000 19950924000000Exporting timestep    997  1095     1 19950924000000 19950925000000Exporting timestep    998  1095     1 19950925000000 19950926000000Exporting timestep    999  1095     1 19950926000000 19950927000000Exporting timestep   1000  1095     1 19950927000000 19950928000000Exporting timestep   1001  1095     1 19950928000000 19950929000000Exporting timestep   1002  1095     1 19950929000000 19950930000000Exporting timestep   1003  1095     1 19950930000000 19951001000000Exporting timestep   1004  1095     1 19951001000000 19951002000000Exporting timestep   1005  1095     1 19951002000000 19951003000000Exporting timestep   1006  1095     1 19951003000000 19951004000000Exporting timestep   1007  1095     1 19951004000000 19951005000000Exporting timestep   1008  1095     1 19951005000000 19951006000000Exporting timestep   1009  1095     1 19951006000000 19951007000000Exporting timestep   1010  1095     1 19951007000000 19951008000000Exporting timestep   1011  1095     1 19951008000000 19951009000000Exporting timestep   1012  1095     1 19951009000000 19951010000000Exporting timestep   1013  1095     1 19951010000000 19951011000000Exporting timestep   1014  
[...]
   msw1postfm_sc1_end  , k =  183388

 msw1postfm_qmodf_begin, k =       1
 msw1postfm_qmodf_end  , k =  183388
 
 iter_outer =  5 : [Hgwmsw - Hgwmodf] (svat= 129752)= -0.10287 m
 iter_outer =  5 : [Hgwmsw - Hgwmodf] (svat= 166139)=  0.07751 m
 

 Cumulative relative frequency distribution of [Hgwmsw-Hgwmodf](m)
 0.00000  1e-5   1e-4   1e-3   1e-2   0.5  1-1e-2 1-1e-3 1-1e-4 1-1e-5 1.00000
 -0.102 -0.100 -0.091 -0.003  0.000  0.000  0.000  0.000  0.007  0.036  0.078
 

 Smallest phreatic storage coefficient: sc1( 151392)= 0.01000 (m3/m2/m)
 
MODFLOW_end
 
MetaSWAP_finalize&write_begin,tiac =    96.00
msw1bd_begin,   k =       1
 max. water loss,     vcr(  71036)=  -0.00000 m3/m2
 max. water creation, vcr(     39)=   0.00000 m3/m2
msw1bd_end,     k =  183388
MetaSWAP_finalize&write_end, tiac =    96.00
MetaSWAP_rootzone_update_begin
MetaSWAP_rootzone_update_end  
 
MODFLOW_begin
    Solving:  Stress period:    97    Time step:     1
MODFLOW_end
 
MetaSWAP_begin, tiac =    96.00
>> DO idtsw=1,nudtsw
     msw1top
MetaSWAP_dtsw_begin, tiac =    96.00
 Reading file G:\models\NBr\in\cap\P\NBr1\p_19930408_NBr1.asc 
 Reading file G:\models\NBr\in\cap\PET\NBr1\PET_19930408_NBr1.asc 
 msw1top_begin, k =       1
 msw1top_end,   k =  183388
MetaSWAP_dtsw_end,   tiac =    97.00
<< ENDDO
MetaSWAP_end, tiac =    97.00
 
MODFLOW_begin
 msw1unsa_begin, k        1
 msw1unsa_end,   k   183388
 msw1postfm_qmodf_begin, k =       1
 msw1postfm_qmodf_end  , k =  183388
 
 iter_outer =  1 : [Hgwmsw - Hgwmodf] (svat= 129957)= -0.06414 m
 iter_outer =  1 : [Hgwmsw - Hgwmodf] (svat=  63671)=  0.10894 m
 

 Cumulative relative frequency distribution of [Hgwmsw-Hgwmodf](m)
 0.00000  1e-5   1e-4   1e-3   1e-2   0.5  1-1e-2 1-1e-3 1-1e-4 1-1e-5 1.00000
 -0.063 -0.042 -0.028 -0.011  0.000  0.000  0.000  0.004  0.036  0.097  0.109
 
   msw1postfm_sc1_begin, k =       1
   msw1postfm_sc1_end  , k =  183388

 msw1postfm_qmodf_begin, k =       1
 msw1postfm_qmodf_end  , k =  183388
 
 iter_outer =  2 : [Hgwmsw - Hgwmodf] (svat=  82566)= -0.12566 m
 iter_outer =  2 : [Hgwmsw - Hgwmodf] (svat= 128339)=  0.01049 m
 

 Cumulative relative frequency distribution of [Hgwmsw-Hgwmodf](m)
 0.00000  1e-5   1e-4   1e-3   1e-2   0.5  1-1e-2 1-1e-3 1-1e-4 1-1e-5 1.00000
 -0.125 -0.124 -0.105  0.000  0.000  0.000  0.000  0.000  0.003  0.009  0.010
 
   msw1postfm_sc1_begin, k =       1
   msw1postfm_sc1_end  , k =  183388

 msw1postfm_qmodf_begin, k =       1
 msw1postfm_qmodf_end  , k =  183388
 
 iter_outer =  3 : [Hgwmsw - Hgwmodf] (svat=  81082)= -0.10077 m
 iter_outer =  3 : [Hgwmsw - Hgwmodf] (svat= 128339)=  0.00478 m
 

 Cumulative relative frequency distribution of [Hgwmsw-Hgwmodf](m)
 0.00000  1e-5   1e-4   1e-3   1e-2   0.5  1-1e-2 1-1e-3 1-1e-4 1-1e-5 1.00000
 -0.100 -0.100 -0.077  0.000  0.000  0.000  0.000  0.000  0.001  0.002  0.005
 
   msw1postfm_sc1_begin, k =       1
   msw1postfm_sc1_end  , k =  183388

 msw1postfm_qmodf_begin, k =       1
 msw1postfm_qmodf_end  , k =  183388
 
 iter_outer =  4 : [Hgwmsw - Hgwmodf] (svat=  81579)= -0.07854 m
 iter_outer =  4 : [Hgwmsw - Hgwmodf] (svat= 128339)=  0.00334 m
 

 Cumulative relative frequency distribution of [Hgwmsw-Hgwmodf](m)
 0.00000  1e-5   1e-4   1e-3   1e-2   0.5  1-1e-2 1-1e-3 1-1e-4 1-1e-5 1.00000
 -0.078 -0.076 -0.051  0.000  0.000  0.000  0.000  0.000  0.001  0.002  0.003
 
   msw1postfm_sc1_begin, k =       1
   msw1postfm_sc1_end  , k =  183388

 msw1postfm_qmodf_begin, k =       1
 msw1postfm_qmodf_end  , k =  183388
 
 iter_outer =  5 : [Hgwmsw - Hgwmodf] (svat=  81579)= -0.07855 m
 iter_outer =  5 : [Hgwmsw - Hgwmodf] (svat= 128339)=  0.00333 m
 

 Cumulative relative frequency distribution of [Hgwmsw-Hgwmodf](m)
 0.00000  1e-5   1e-4   1e-3   1e-2   0.5  1-1e-2 1-1e-3 1-1e-4 1-1e-5 1.00000
 -0.078 -0.076 -0.051  0.000  0.000  0.000  0.000  0.000  0.001  0.002  0.003
 

 Smallest phreatic storage coefficient: sc1(   4805)= 0.01000 (m3/m2/m)
 
MODFLOW_end
 
MetaSWAP_finalize&write_begin,tiac =    97.00
msw1bd_begin,   k =       1
 max. water loss,     vcr(  48459)=  -0.00000 m3/m2
 max. water creation, vcr(     38)=   0.00000 m3/m2
msw1bd_end,     k =  183388
MetaSWAP_finalize&write_end, tiac =    97.00
MetaSWAP_rootzone_update_begin
MetaSWAP_rootzone_update_end  
 
MODFLOW_begin
    Solving:  Stress period:    98    Time step:     1
MODFLOW_end
 
MetaSWAP_begin, tiac =    97.00
>> DO idtsw=1,nudtsw
     msw1top
MetaSWAP_dtsw_begin, tiac =    97.00
 Reading file G:\models\NBr\in\cap\P\NBr1\p_19930409_NBr1.asc 
 Reading file G:\models\NBr\in\cap\PET\NBr1\PET_19930409_NBr1.asc 
 msw1top_begin, k =       1
 msw1top_end,   k =  183388
MetaSWAP_dtsw_end,   tiac =    98.00
<< ENDDO
MetaSWAP_end, tiac =    98.00
 
MODFLOW_begin
 msw1unsa_begin, k        1
 msw1unsa_end,   k   183388
 msw1postfm_qmodf_begin, k =       1
 msw1postfm_qmodf_end  , k =  183388
 
 iter_outer =  1 : [Hgwmsw - Hgwmodf] (svat=  92356)= -0.16220 m
 iter_outer =  1 : [Hgwmsw - Hgwmodf] (svat=  19384)=  0.05299 m
 

 Cumulative relative frequency distribution of [Hgwmsw-Hgwmodf](m)
 0.00000  1e-5   1e-4   1e-3   1e-2   0.5  1-1e-2 1-1e-3 1-1e-4 1-1e-5 1.00000
 -0.161 -0.119 -0.040 -0.024 -0.001  0.000  0.001  0.009  0.023  0.034  0.053
 
   msw1postfm_sc1_begin, k =       1
   msw1postfm_sc1_end  , k =  183388

 msw1postfm_qmodf_begin, k =       1
 msw1postfm_qmodf_end  , k =  183388
 
 iter_outer =  2 : [Hgwmsw - Hgwmodf] (svat=  92356)= -0.15622 m
 iter_outer =  2 : [Hgwmsw - Hgwmodf] (svat=  58706)=  0.01885 m
 

 Cumulative relative frequency distribution of [Hgwmsw-Hgwmodf](m)
 0.00000  1e-5   1e-4   1e-3   1e-2   0.5  1-1e-2 1-1e-3 1-1e-4 1-1e-5 1.00000
 -0.155 -0.152 -0.107 -0.003  0.000  0.000  0.000  0.002  0.009  0.017  0.019
 
   msw1postfm_sc1_begin, k =       1
   msw1postfm_sc1_end  , k =  183388

 msw1postfm_qmodf_begin, k =       1
 msw1postfm_qmodf_end  , k =  183388
 
 iter_outer =  3 : [Hgwmsw - Hgwmodf] (svat= 179175)= -0.11832 m
 iter_outer =  3 : [Hgwmsw - Hgwmodf] (svat=   6997)=  0.00788 m
 

 Cumulative relative frequency distribution of [Hgwmsw-Hgwmodf](m)
 0.00000  1e-5   1e-4   1e-3   1e-2   0.5  1-1e-2 1-1e-3 1-1e-4 1-1e-5 1.00000
 -0.117 -0.107 -0.089  0.000  0.000  0.000  0.000  0.001  0.003  0.005  0.008
 
   msw1postfm_sc1_begin, k =       1
   msw1postfm_sc1_end  , k =  183388

 msw1postfm_qmodf_begin, k =       1
 msw1postfm_qmodf_end  , k =  183388
 
 iter_outer =  4 : [Hgwmsw - Hgwmodf] (svat= 179175)= -0.09365 m
 iter_outer =  4 : [Hgwmsw - Hgwmodf] (svat=   6997)=  0.00648 m
 

 Cumulative relative frequency distribution of [Hgwmsw-Hgwmodf](m)
 0.00000  1e-5   1e-4   1e-3   1e-2   0.5  1-1e-2 1-1e-3 1-1e-4 1-1e-5 1.00000
 -0.093 -0.086 -0.066  0.000  0.000  0.000  0.000  0.000  0.002  0.004  0.006
 
   msw1postfm_sc1_begin, k =       1
   msw1postfm_sc1_end  , k =  183388

 msw1postfm_qmodf_begin, k =       1
 msw1postfm_qmodf_end  , k =  183388
 
 iter_outer =  5 : [Hgwmsw - Hgwmodf] (svat= 179175)= -0.09368 m
 iter_outer =  5 : [Hgwmsw - Hgwmodf] (svat=   6997)=  0.00633 m
 

 Cumulative relative frequency distribution of [Hgwmsw-Hgwmodf](m)
 0.00000  1e-5   1e-4   1e-3   1e-2   0.5  1-1e-2 1-1e-3 1-1e-4 1-1e-5 1.00000
 -0.093 -0.086 -0.066  0.000  0.000  0.000  0.000  0.000  0.002  0.004  0.006
 

 Smallest phreatic storage coefficient: sc1( 137632)= 0.01000 (m3/m2/m)
 
MODFLOW_end
 
MetaSWAP_finalize&write_begin,tiac =    98.00
msw1bd_begin,   k =       1
 max. water loss,     vcr(  16116)=  -0.00000 m3/m2
 max. water creation, vcr(     39)=   0.00000 m3/m2
msw1bd_end,     k =  183388
MetaSWAP_finalize&write_end, tiac =    98.00
MetaSWAP_rootzone_update_begin
MetaSWAP_rootzone_update_end  
 
MODFLOW_begin
    Solving:  Stress period:    99    Time step:     1
MODFLOW_end
 
MetaSWAP_begin, tiac =    98.00
>> DO idtsw=1,nudtsw
     msw1top
MetaSWAP_dtsw_begin, tiac =    98.00
 Reading file G:\models\NBr\in\cap\P\NBr1\p_19930410_NBr1.asc 
 Reading file G:\models\NBr\in\cap\PET\NBr1\PET_19930410_NBr1.asc 
 msw1top_begin, k =       1
 msw1top_end,   k =  183388
MetaSWAP_dtsw_end,   tiac =    99.00
<< ENDDO
MetaSWAP_end, tiac =    99.00
 
MODFLOW_begin
 msw1unsa_begin, k        1
 msw1unsa_end,   k   183388
 msw1postfm_qmodf_begin, k =       1
 msw1postfm_qmodf_end  , k =  183388
 
 iter_outer =  1 : [Hgwmsw - Hgwmodf] (svat= 161295)= -0.12344 m
 iter_outer =  1 : [Hgwmsw - Hgwmodf] (svat=  52074)=  0.08814 m
 

 Cumulative relative frequency distribution of [Hgwmsw-Hgwmodf](m)
 0.00000  1e-5   1e-4   1e-3   1e-2   0.5  1-1e-2 1-1e-3 1-1e-4 1-1e-5 1.00000
 -0.122 -0.120 -0.030 -0.010  0.000  0.000  0.000  0.006  0.020  0.058  0.088
 
   msw1postfm_sc1_begin, k =       1
   msw1postfm_sc1_end  , k =  183388

 msw1postfm_qmodf_begin, k =       1
 msw1postfm_qmodf_end  , k =  183388
 
 iter_outer =  2 : [Hgwmsw - Hgwmodf] (svat=  81579)= -0.12891 m
 iter_outer =  2 : [Hgwmsw - Hgwmodf] (svat= 129751)=  0.12926 m
 

 Cumulative relative frequency distribution of [Hgwmsw-Hgwmodf](m)
 0.00000  1e-5   1e-4   1e-3   1e-2   0.5  1-1e-2 1-1e-3 1-1e-4 1-1e-5 1.00000
 -0.128 -0.127 -0.080  0.000  0.000  0.000  0.000  0.001  0.005  0.035  0.129
 
   msw1postfm_sc1_begin, k =       1
   msw1postfm_sc1_end  , k =  183388

 msw1postfm_qmodf_begin, k =       1
 msw1postfm_qmodf_end  , k =  183388
 
 iter_outer =  3 : [Hgwmsw - Hgwmodf] (svat=  81083)= -0.10300 m
 iter_outer =  3 : [Hgwmsw - Hgwmodf] (svat= 129751)=  0.04042 m
 

 Cumulative relative frequency distribution of [Hgwmsw-Hgwmodf](m)
 0.00000  1e-5   1e-4   1e-3   1e-2   0.5  1-1e-2 1-1e-3 1-1e-4 1-1e-5 1.00000
 -0.102 -0.099 -0.051  0.000  0.000  0.000  0.000  0.000  0.002  0.015  0.040
 
   msw1postfm_sc1_begin, k =       1
   msw1postfm_sc1_end  , k =  183388

 msw1postfm_qmodf_begin, k =       1
 msw1postfm_qmodf_end  , k =  183388
 
 iter_outer =  4 : [Hgwmsw - Hgwmodf] (svat=  18762)= -0.08107 m
 iter_outer =  4 : [Hgwmsw - Hgwmodf] (svat= 129751)=  0.01559 m
 

 Cumulative relative frequency distribution of [Hgwmsw-Hgwmodf](m)
 0.00000  1e-5   1e-4   1e-3   1e-2   0.5  1-1e-2 1-1e-3 1-1e-4 1-1e-5 1.00000
 -0.080 -0.078 -0.039  0.000  0.000  0.000  0.000  0.000  0.001  0.005  0.016
 
   msw1postfm_sc1_begin, k =       1
   msw1postfm_sc1_end  , k =  183388

 msw1postfm_qmodf_begin, k =       1
 msw1postfm_qmodf_end  , k =  183388
 
 iter_outer =  5 : [Hgwmsw - Hgwmodf] (svat=  18762)= -0.08088 m
 iter_outer =  5 : [Hgwmsw - Hgwmodf] (svat= 129751)=  0.01561 m
 

 Cumulative relative frequency distribution of [Hgwmsw-Hgwmodf](m)
 0.00000  1e-5   1e-4   1e-3   1e-2   0.5  1-1e-2 1-1e-3 1-1e-4 1-1e-5 1.00000
 -0.080 -0.078 -0.039  0.000  0.000  0.000  0.000  0.000  0.001  0.005  0.016
 

 Smallest phreatic storage coefficient: sc1( 127258)= 0.01000 (m3/m2/m)
 
MODFLOW_end
 
MetaSWAP_finalize&write_begin,tiac =    99.00
msw1bd_begin,   k =       1
 max. water loss,     vcr( 134524)=  -0.00000 m3/m2
 max. water creation, vcr(     39)=   0.00000 m3/m2
msw1bd_end,     k =  183388
MetaSWAP_finalize&write_end, tiac =    99.00
MetaSWAP_rootzone_update_begin
MetaSWAP_rootzone_update_end  
 
MODFLOW_begin
    Solving:  Stress period:   100    Time step:     1
MODFLOW_end
 
MetaSWAP_begin, tiac =    99.00
>> DO idtsw=1,nudtsw
     msw1top
MetaSWAP_dtsw_begin, tiac =    99.00
 Reading file G:\models\NBr\in\cap\P\NBr1\p_19930411_NBr1.asc 
 Reading file G:\models\NBr\in\cap\PET\NBr1\PET_19930411_NBr1.asc 
 msw1top_begin, k =       1
 msw1top_end,   k =  183388
MetaSWAP_dtsw_end,   tiac =   100.00
<< ENDDO
MetaSWAP_end, tiac =   100.00
 
MODFLOW_begin
 msw1unsa_begin, k        1
 msw1unsa_end,   k   183388
 msw1postfm_qmodf_begin, k =       1
 msw1postfm_qmodf_end  , k =  183388
 
 iter_outer =  1 : [Hgwmsw - Hgwmodf] (svat= 140033)= -0.09263 m
 iter_outer =  1 : [Hgwmsw - Hgwmodf] (svat=  49012)=  0.10109 m
 

 Cumulative relative frequency distribution of [Hgwmsw-Hgwmodf](m)
 0.00000  1e-5   1e-4   1e-3   1e-2   0.5  1-1e-2 1-1e-3 1-1e-4 1-1e-5 1.00000
 -0.092 -0.082 -0.028 -0.009  0.000  0.000  0.000  0.005  0.025  0.057  0.101
 
   msw1postfm_sc1_begin, k =       1
   msw1postfm_sc1_end  , k =  183388

 msw1postfm_qmodf_begin, k =       1
 msw1postfm_qmodf_end  , k =  183388
 
 iter_outer =  2 : [Hgwmsw - Hgwmodf] (svat=  82566)= -0.14019 m
 iter_outer =  2 : [Hgwmsw - Hgwmodf] (svat= 106066)=  0.03960 m
 

 Cumulative relative frequency distribution of [Hgwmsw-Hgwmodf](m)
 0.00000  1e-5   1e-4   1e-3   1e-2   0.5  1-1e-2 1-1e-3 1-1e-4 1-1e-5 1.00000
 -0.139 -0.136 -0.087  0.000  0.000  0.000  0.000  0.001  0.005  0.027  0.040
 
   msw1postfm_sc1_begin, k =       1
   msw1postfm_sc1_end  , k =  183388

 msw1postfm_qmodf_begin, k =       1
 msw1postfm_qmodf_end  , k =  183388
 
 iter_outer =  3 : [Hgwmsw - Hgwmodf] (svat=  82566)= -0.11045 m
 iter_outer =  3 : [Hgwmsw - Hgwmodf] (svat=   2974)=  0.01331 m
 

 Cumulative relative frequency distribution of [Hgwmsw-Hgwmodf](m)
 0.00000  1e-5   1e-4   1e-3   1e-2   0.5  1-1e-2 1-1e-3 1-1e-4 1-1e-5 1.00000
 -0.109 -0.104 -0.048  0.000  0.000  0.000  0.000  0.000  0.002  0.009  0.013
 
   msw1postfm_sc1_begin, k =       1
   msw1postfm_sc1_end  , k =  183388

 msw1postfm_qmodf_begin, k =       1
 msw1postfm_qmodf_end  , k =  183388
 
 iter_outer =  4 : [Hgwmsw - Hgwmodf] (svat=  18761)= -0.07923 m
 iter_outer =  4 : [Hgwmsw - Hgwmodf] (svat= 128340)=  0.00766 m
 

 Cumulative relative frequency distribution of [Hgwmsw-Hgwmodf](m)
 0.00000  1e-5   1e-4   1e-3   1e-2   0.5  1-1e-2 1-1e-3 1-1e-4 1-1e-5 1.00000
 -0.078 -0.078 -0.038  0.000  0.000  0.000  0.000  0.000  0.001  0.005  0.008
 
   msw1postfm_sc1_begin, k =       1
   msw1postfm_sc1_end  , k =  183388

 msw1postfm_qmodf_begin, k =       1
 msw1postfm_qmodf_end  , k =  183388
 
 iter_outer =  5 : [Hgwmsw - Hgwmodf] (svat=  18761)= -0.07899 m
 iter_outer =  5 : [Hgwmsw - Hgwmodf] (svat= 128340)=  0.00766 m
 

 Cumulative relative frequency distribution of [Hgwmsw-Hgwmodf](m)
 0.00000  1e-5   1e-4   1e-3   1e-2   0.5  1-1e-2 1-1e-3 1-1e-4 1-1e-5 1.00000
 -0.078 -0.078 -0.038  0.000  0.000  0.000  0.000  0.000  0.001  0.005  0.008
 

 Smallest phreatic storage coefficient: sc1(  51131)= 0.01000 (m3/m2/m)
 
MODFLOW_end
 
MetaSWAP_finalize&write_begin,tiac =   100.00
msw1bd_begin,   k =       1
 max. water loss,     vcr(  33636)=  -0.00000 m3/m2
 max. water creation, vcr(     38)=   0.00000 m3/m2
msw1bd_end,     k =  183388
MetaSWAP_finalize&write_end, tiac =   100.00
MetaSWAP_rootzone_update_begin
MetaSWAP_rootzone_update_end  
 
MODFLOW_begin
    Solving:  Stress period:   101    Time step:     1
MODFLOW_end
 
MetaSWAP_begin, tiac =   100.00
>> DO idtsw=1,nudtsw
     msw1top
MetaSWAP_dtsw_begin, tiac =   100.00
 Reading file G:\models\NBr\in\cap\P\NBr1\p_19930412_NBr1.asc 
 Reading file G:\models\NBr\in\cap\PET\NBr1\PET_19930412_NBr1.asc 
 msw1top_begin, k =       1
 msw1top_end,   k =  183388
MetaSWAP_dtsw_end,   tiac =   101.00
<< ENDDO
MetaSWAP_end, tiac =   101.00
 
MODFLOW_begin
 msw1unsa_begin, k        1
 msw1unsa_end,   k   183388
 msw1postfm_qmodf_begin, k =       1
 msw1postfm_qmodf_end  , k =  183388
 
 iter_outer =  1 : [Hgwmsw - Hgwmodf] (svat=  51145)= -0.07909 m
 iter_outer =  1 : [Hgwmsw - Hgwmodf] (svat=  84393)=  0.13596 m
 

 Cumulative relative frequency distribution of [Hgwmsw-Hgwmodf](m)
 0.00000  1e-5   1e-4   1e-3   1e-2   0.5  1-1e-2 1-1e-3 1-1e-4 1-1e-5 1.00000
 -0.078 -0.075 -0.040 -0.018  0.000  0.000  0.002  0.034  0.082  0.116  0.136
 
   msw1postfm_sc1_begin, k =       1
   msw1postfm_sc1_end  , k =  183388

 msw1postfm_qmodf_begin, k =       1
 msw1postfm_qmodf_end  , k =  183388
 
 iter_outer =  2 : [Hgwmsw - Hgwmodf] (svat=  81081)= -0.12449 m
 iter_outer =  2 : [Hgwmsw - Hgwmodf] (svat=  74987)=  0.05153 m
 

 Cumulative relative frequency distribution of [Hgwmsw-Hgwmodf](m)
 0.00000  1e-5   1e-4   1e-3   1e-2   0.5  1-1e-2 1-1e-3 1-1e-4 1-1e-5 1.00000
 -0.123 -0.107 -0.013 -0.001  0.000  0.000  0.000  0.007  0.028  0.046  0.052
 
   msw1postfm_sc1_begin, k =       1
   msw1postfm_sc1_end  , k =  183388

 msw1postfm_qmodf_begin, k =       1
 msw1postfm_qmodf_end  , k =  183388
 
 iter_outer =  3 : [Hgwmsw - Hgwmodf] (svat=  81081)= -0.10384 m
 iter_outer =  3 : [Hgwmsw - Hgwmodf] (svat=  74987)=  0.02480 m
 

 Cumulative relative frequency distribution of [Hgwmsw-Hgwmodf](m)
 0.00000  1e-5   1e-4   1e-3   1e-2   0.5  1-1e-2 1-1e-3 1-1e-4 1-1e-5 1.00000
 -0.103 -0.087 -0.003  0.000  0.000  0.000  0.000  0.002  0.013  0.019  0.025
 
   msw1postfm_sc1_begin, k =       1
   msw1postfm_sc1_end  , k =  183388

 msw1postfm_qmodf_begin, k =       1
 msw1postfm_qmodf_end  , k =  183388
 
 iter_outer =  4 : [Hgwmsw - Hgwmodf] (svat=  81081)= -0.07943 m
 iter_outer =  4 : [Hgwmsw - Hgwmodf] (svat=  74987)=  0.01049 m
 

 Cumulative relative frequency distribution of [Hgwmsw-Hgwmodf](m)
 0.00000  1e-5   1e-4   1e-3   1e-2   0.5  1-1e-2 1-1e-3 1-1e-4 1-1e-5 1.00000
 -0.078 -0.064  0.000  0.000  0.000  0.000  0.000  0.001  0.006  0.009  0.010
 
   msw1postfm_sc1_begin, k =       1
   msw1postfm_sc1_end  , k =  183388

 msw1postfm_qmodf_begin, k =       1
 msw1postfm_qmodf_end  , k =  183388
 
 iter_outer =  5 : [Hgwmsw - Hgwmodf] (svat=  81081)= -0.07952 m
 iter_outer =  5 : [Hgwmsw - Hgwmodf] (svat=  74987)=  0.01049 m
 

 Cumulative relative frequency distribution of [Hgwmsw-Hgwmodf](m)
 0.00000  1e-5   1e-4   1e-3   1e-2   0.5  1-1e-2 1-1e-3 1-1e-4 1-1e-5 1.00000
 -0.079 -0.064 -0.001  0.000  0.000  0.000  0.000  0.001  0.006  0.009  0.010
 
   msw1postfm_sc1_begin, k =       1
   msw1postfm_sc1_end  , k =  183388

 msw1postfm_qmodf_begin, k =       1
 msw1postfm_qmodf_end  , k =  183388
 
 iter_outer =  6 : [Hgwmsw - Hgwmodf] (svat=  81081)= -0.07953 m
 iter_outer =  6 : [Hgwmsw - Hgwmodf] (svat=  74987)=  0.01051 m
 

 Cumulative relative frequency distribution of [Hgwmsw-Hgwmodf](m)
 0.00000  1e-5   1e-4   1e-3   1e-2   0.5  1-1e-2 1-1e-3 1-1e-4 1-1e-5 1.00000
 -0.079 -0.064  0.000  0.000  0.000  0.000  0.000  0.001  0.006  0.009  0.011
 

 Smallest phreatic storage coefficient: sc1( 182299)= 0.01000 (m3/m2/m)
 
MODFLOW_end
 
MetaSWAP_finalize&write_begin,tiac =   101.00
msw1bd_begin,   k =       1
 max. water loss,     vcr(  96308)=  -0.00000 m3/m2
 max. water creation, vcr(     38)=   0.00000 m3/m2
msw1bd_end,     k =  183388
MetaSWAP_finalize&write_end, tiac =   101.00
MetaSWAP_rootzone_update_begin
MetaSWAP_rootzone_update_end  
 
MODFLOW_begin
    Solving:  Stress period:   102    Time step:     1
MODFLOW_end
 
MetaSWAP_begin, tiac =   101.00
>> DO idtsw=1,nudtsw
     msw1top
MetaSWAP_dtsw_begin, tiac =   101.00
 Reading file G:\models\NBr\in\cap\P\NBr1\p_19930413_NBr1.asc 
 Reading file G:\models\NBr\in\cap\PET\NBr1\PET_19930413_NBr1.asc 
 msw1top_begin, k =       1
 msw1top_end,   k =  183388
MetaSWAP_dtsw_end,   tiac =   102.00
<< ENDDO
MetaSWAP_end, tiac =   102.00
 
MODFLOW_begin
 msw1unsa_begin, k        1
 msw1unsa_end,   k   183388
 msw1postfm_qmodf_begin, k =       1
 msw1postfm_qmodf_end  , k =  183388
 
 iter_outer =  1 : [Hgwmsw - Hgwmodf] (svat= 130478)= -0.26246 m
 iter_outer =  1 : [Hgwmsw - Hgwmodf] (svat=  21874)=  0.07440 m
 

 Cumulative relative frequency distribution of [Hgwmsw-Hgwmodf](m)
 0.00000  1e-5   1e-4   1e-3   1e-2   0.5  1-1e-2 1-1e-3 1-1e-4 1-1e-5 1.00000
 -0.261 -0.127 -0.060 -0.035 -0.001  0.000  0.000  0.009  0.031  0.062  0.074
 
   msw1postfm_sc1_begin, k =       1
   msw1postfm_sc1_end  , k =  183388

